<routes xmlns:xsi="http://www.w3.org/2001/XMLSchema-instance" xsi:noNamespaceSchemaLocation="http://sumo.dlr.de/xsd/routes_file.xsd">
	<vType id="bus" vClass="bus" color="green" />
	<vType id="default_017" vClass="passenger" color="red" />
    <vType id="random_017" vClass="passenger" color="blue" />
	<vType id="default_016" vClass="passenger" color="red" />
    <vType id="random_016" vClass="passenger" color="blue" />
	<vType id="default_015" vClass="passenger" color="red" />
    <vType id="random_015" vClass="passenger" color="blue" />
	<vType id="default_014" vClass="passenger" color="red" />
    <vType id="random_014" vClass="passenger" color="blue" />
	<vType id="default_013" vClass="passenger" color="red" />
    <vType id="random_013" vClass="passenger" color="blue" />
    <vType id="default_012" vClass="passenger" color="red" />
    <vType id="random_012" vClass="passenger" color="blue" />
	<vType id="default_011" vClass="passenger" color="red" />
    <vType id="random_011" vClass="passenger" color="blue" />
	<vType id="default_010" vClass="passenger" color="red" />
    <vType id="random_010" vClass="passenger" color="blue" />
	<vType id="default_009" vClass="passenger" color="red" />
    <vType id="random_009" vClass="passenger" color="blue" />
	<vType id="default_008" vClass="passenger" color="red" />
    <vType id="random_008" vClass="passenger" color="blue" />
	<vType id="default_007" vClass="passenger" color="red" />
    <vType id="random_007" vClass="passenger" color="blue" />
	<vType id="default_006" vClass="passenger" color="red" />
    <vType id="random_006" vClass="passenger" color="blue" />
	<vType id="default_005" vClass="passenger" color="red" />
    <vType id="random_005" vClass="passenger" color="blue" />
	<vType id="default_004" vClass="passenger" color="red" />
    <vType id="random_004" vClass="passenger" color="blue" />
	<vType id="default_003" vClass="passenger" color="red" />
    <vType id="random_003" vClass="passenger" color="blue" />
	<vType id="default_022" vClass="passenger" color="red" />
    <vType id="random_022" vClass="passenger" color="blue" />
	<vType id="default_021" vClass="passenger" color="red" />
    <vType id="random_021" vClass="passenger" color="blue" />
	<vType id="default_020" vClass="passenger" color="red" />
    <vType id="random_020" vClass="passenger" color="blue" />
	<vType id="default_019" vClass="passenger" color="red" />
    <vType id="random_019" vClass="passenger" color="blue" />
	<vType id="default_018" vClass="passenger" color="red" />
    <vType id="random_018" vClass="passenger" color="blue" />
	<vType id="default_002" vClass="passenger" color="red" />
    <vType id="random_002" vClass="passenger" color="blue" />
	<vType id="default_001" vClass="passenger" color="red" />
    <vType id="random_001" vClass="passenger" color="blue" />
<trip id="0" type="default_017" depart="57600" from="266565295#5" to="24693977#1" /><trip id="1" type="default_017" depart="57600.9" from="266565295#5" to="24693977#1" /><trip id="2" type="default_017" depart="57601.8" from="266565295#5" to="-653473569#5" /><trip id="3" type="default_017" depart="57602.700000000004" from="315358253#1" to="201956820" /><trip id="4" type="random_017" depart="57603.600000000006" from="27920078#0" to="201956811#0" /><trip id="5" type="default_017" depart="57604.50000000001" from="124812856#0" to="201956810" /><trip id="6" type="default_017" depart="57605.40000000001" from="124812856#0" to="-653473569#5" /><trip id="7" type="default_016" depart="57606.30000000001" from="124812856#0" to="202070434#2" /><trip id="8" type="default_017" depart="57607.20000000001" from="10425609#0" to="-653473569#5" /><trip id="9" type="default_017" depart="57608.10000000001" from="266565295#5" to="24693977#1" /><trip id="10" type="default_017" depart="57609.000000000015" from="10425609#0" to="-653473569#5" /><trip id="11" type="default_017" depart="57609.900000000016" from="124812856#0" to="202070434#2" /><trip id="12" type="bus" depart="57610.80000000002" from="-24693977#1" to="32978638#0" /><trip id="13" type="default_017" depart="57611.70000000002" from="653473569#5" to="22716549#0" /><trip id="14" type="default_016" depart="57612.60000000002" from="315358253#1" to="-266565295#5" /><trip id="15" type="default_017" depart="57613.50000000002" from="24599188#0.94" to="24693977#1" /><trip id="16" type="default_017" depart="57614.40000000002" from="27920078#0" to="201956820" /><trip id="17" type="default_017" depart="57615.300000000025" from="124812856#0" to="202070434#2" /><trip id="18" type="default_017" depart="57616.200000000026" from="653473569#5" to="201956820" /><trip id="19" type="default_016" depart="57617.10000000003" from="10425609#0" to="202070434#2" /><trip id="20" type="random_017" depart="57618.00000000003" from="653473569#5" to="201956811#0" /><trip id="21" type="default_017" depart="57618.90000000003" from="124812856#0" to="-315358253#1" /><trip id="22" type="default_016" depart="57619.80000000003" from="266565295#5" to="24693977#1" /><trip id="23" type="default_016" depart="57620.70000000003" from="27920078#0" to="201956811#0" /><trip id="24" type="default_017" depart="57621.600000000035" from="10425609#0" to="-653473569#5" /><trip id="25" type="default_017" depart="57622.50000000004" from="315358253#1" to="201956811#0" /><trip id="26" type="default_017" depart="57623.40000000004" from="124812856#0" to="-653473569#5" /><trip id="27" type="default_017" depart="57624.30000000004" from="-32978638#0" to="24693977#1" /><trip id="28" type="default_017" depart="57625.20000000004" from="24634414#5" to="-266565295#5" /><trip id="29" type="random_016" depart="57626.10000000004" from="124812856#0" to="-653473569#5" /><trip id="30" type="default_016" depart="57627.000000000044" from="24608844" to="32978638#0" /><trip id="31" type="default_016" depart="57627.900000000045" from="-24693977#1" to="-266565295#5" /><trip id="32" type="default_017" depart="57628.80000000005" from="24599188#0.94" to="22716549#0" /><trip id="33" type="default_016" depart="57629.70000000005" from="25145012#7" to="201956811#0" /><trip id="34" type="default_016" depart="57630.60000000005" from="124812856#0" to="201956810" /><trip id="35" type="default_016" depart="57631.50000000005" from="-32978638#0" to="-315358253#1" /><trip id="36" type="random_016" depart="57632.40000000005" from="124812856#0" to="-653473569#5" /><trip id="37" type="default_016" depart="57633.300000000054" from="10425609#0" to="-653473569#5" /><trip id="38" type="random_017" depart="57634.200000000055" from="-173169611#0" to="-24634414#4" /><trip id="39" type="default_016" depart="57635.10000000006" from="-32978638#0" to="-315358253#1" /><trip id="40" type="default_017" depart="57636.00000000006" from="27920078#0" to="201956820" /><trip id="41" type="default_016" depart="57636.90000000006" from="124812856#0" to="202070434#2" /><trip id="42" type="default_017" depart="57637.80000000006" from="-24693977#1" to="-266565295#5" /><trip id="43" type="default_017" depart="57638.70000000006" from="-32978638#0" to="-315358253#1" /><trip id="44" type="default_016" depart="57639.600000000064" from="124812856#0" to="201956810" /><trip id="45" type="default_017" depart="57640.500000000065" from="315358253#1" to="32978638#0" /><trip id="46" type="default_017" depart="57641.40000000007" from="124812856#0" to="202070434#2" /><trip id="47" type="default_017" depart="57642.30000000007" from="24599188#0.94" to="22716549#0" /><trip id="48" type="default_017" depart="57643.20000000007" from="27920078#0" to="201956820" /><trip id="49" type="default_016" depart="57644.10000000007" from="315358253#1" to="-266565295#5" /><trip id="50" type="default_017" depart="57645.00000000007" from="27920078#0" to="-83304175#2" /><trip id="51" type="default_017" depart="57645.900000000074" from="27920078#0" to="201956820" /><trip id="52" type="random_017" depart="57646.800000000076" from="-173169611#0" to="201956820" /><trip id="53" type="default_017" depart="57647.70000000008" from="-32978638#0" to="202070434#2" /><trip id="54" type="default_017" depart="57648.60000000008" from="25145012#7" to="201956811#0" /><trip id="55" type="default_016" depart="57649.50000000008" from="-173169611#0" to="-83304175#2" /><trip id="56" type="default_016" depart="57650.40000000008" from="266565295#5" to="-315358253#1" /><trip id="57" type="default_016" depart="57651.30000000008" from="27920078#0" to="201956820" /><trip id="58" type="default_017" depart="57652.200000000084" from="37386279" to="-24634414#4" /><trip id="59" type="random_017" depart="57653.100000000086" from="-32978638#0" to="24693977#1" /><trip id="60" type="default_017" depart="57654.00000000009" from="653473569#5" to="201956811#0" /><trip id="61" type="default_017" depart="57654.90000000009" from="124812856#0" to="202070434#2" /><trip id="62" type="default_017" depart="57655.80000000009" from="10425609#0" to="-653473569#5" /><trip id="63" type="random_017" depart="57656.70000000009" from="10425609#0" to="201956810" /><trip id="64" type="default_016" depart="57657.60000000009" from="-32978638#0" to="202070434#2" /><trip id="65" type="default_017" depart="57658.500000000095" from="25145012#7" to="201956820" /><trip id="66" type="default_017" depart="57659.400000000096" from="124812856#0" to="202070434#2" /><trip id="67" type="default_017" depart="57660.3000000001" from="653473569#5" to="201956811#0" /><trip id="68" type="default_016" depart="57661.2000000001" from="-32978638#0" to="202070434#2" /><trip id="69" type="default_016" depart="57662.1000000001" from="10425609#0" to="201956810" /><trip id="70" type="default_017" depart="57663.0000000001" from="27920078#0" to="201956820" /><trip id="71" type="default_017" depart="57663.9000000001" from="315358253#1" to="32978638#0" /><trip id="72" type="default_017" depart="57664.800000000105" from="10425609#0" to="-653473569#5" /><trip id="73" type="default_016" depart="57665.700000000106" from="27920078#0" to="201956811#0" /><trip id="74" type="default_016" depart="57666.60000000011" from="124812856#0" to="-315358253#1" /><trip id="75" type="default_017" depart="57667.50000000011" from="315358253#1" to="32978638#0" /><trip id="76" type="default_017" depart="57668.40000000011" from="-32978638#0" to="-315358253#1" /><trip id="77" type="default_017" depart="57669.30000000011" from="266565295#5" to="24693977#1" /><trip id="78" type="default_016" depart="57670.20000000011" from="27920078#0" to="-83304175#2" /><trip id="79" type="default_016" depart="57671.100000000115" from="-32978638#0" to="-315358253#1" /><trip id="80" type="default_016" depart="57672.00000000012" from="25145012#7" to="201956811#0" /><trip id="81" type="default_016" depart="57672.90000000012" from="27920078#0" to="201956811#0" /><trip id="82" type="default_017" depart="57673.80000000012" from="266565295#5" to="202070434#2" /><trip id="83" type="default_017" depart="57674.70000000012" from="266565295#5" to="202070434#2" /><trip id="84" type="random_017" depart="57675.60000000012" from="653473569#5" to="201956820" /><trip id="85" type="default_017" depart="57676.500000000124" from="-32978638#0" to="-315358253#1" /><trip id="86" type="default_017" depart="57677.400000000125" from="10425609#0" to="-653473569#5" /><trip id="87" type="default_017" depart="57678.30000000013" from="124812856#0" to="202070434#2" /><trip id="88" type="default_016" depart="57679.20000000013" from="124812856#0" to="201956810" /><trip id="89" type="default_016" depart="57680.10000000013" from="10425609#0" to="-653473569#5" /><trip id="90" type="default_016" depart="57681.00000000013" from="653473569#5" to="201956811#0" /><trip id="91" type="default_017" depart="57681.90000000013" from="27920078#0" to="-266565295#5" /><trip id="92" type="default_017" depart="57682.800000000134" from="124812856#0" to="-653473569#5" /><trip id="93" type="default_016" depart="57683.700000000135" from="124812856#0" to="24693977#1" /><trip id="94" type="default_017" depart="57684.60000000014" from="24599188#0.94" to="24693977#1" /><trip id="95" type="default_016" depart="57685.50000000014" from="10425609#0" to="-653473569#5" /><trip id="96" type="default_017" depart="57686.40000000014" from="124812856#0" to="202070434#2" /><trip id="97" type="random_016" depart="57687.30000000014" from="10425609#0" to="-653473569#5" /><trip id="98" type="default_017" depart="57688.20000000014" from="124812856#0" to="-653473569#5" /><trip id="99" type="default_016" depart="57689.100000000144" from="-32978638#0" to="-315358253#1" /><trip id="100" type="default_017" depart="57690.000000000146" from="315358253#1" to="201956811#0" /><trip id="101" type="default_017" depart="57690.90000000015" from="653473569#5" to="-83304175#2" /><trip id="102" type="default_017" depart="57691.80000000015" from="10425609#0" to="202070434#2" /><trip id="103" type="default_017" depart="57692.70000000015" from="315358253#1" to="32978638#0" /><trip id="104" type="default_017" depart="57693.60000000015" from="653473569#5" to="201956820" /><trip id="105" type="default_017" depart="57694.50000000015" from="124812856#0" to="201956810" /><trip id="106" type="default_018" depart="57695.400000000154" from="315358253#1" to="32978638#0" /><trip id="107" type="default_017" depart="57696.300000000156" from="27920078#0" to="-83304175#2" /><trip id="108" type="default_016" depart="57697.20000000016" from="124812856#0" to="201956810" /><trip id="109" type="random_017" depart="57698.10000000016" from="-32978638#0" to="202070434#2" /><trip id="110" type="default_016" depart="57699.00000000016" from="-32978638#0" to="-315358253#1" /><trip id="111" type="default_017" depart="57699.90000000016" from="266565295#5" to="24693977#1" /><trip id="112" type="default_016" depart="57700.80000000016" from="315358253#1" to="-266565295#5" /><trip id="113" type="default_017" depart="57701.700000000164" from="-24693977#1" to="32978638#0" /><trip id="114" type="default_017" depart="57702.600000000166" from="653473569#5" to="201956811#0" /><trip id="115" type="default_017" depart="57703.50000000017" from="124812856#0" to="22716549#0" /><trip id="116" type="default_016" depart="57704.40000000017" from="653473569#5" to="201956820" /><trip id="117" type="bus" depart="57705.30000000017" from="315358253#1" to="32978638#0" /><trip id="118" type="default_017" depart="57706.20000000017" from="266565295#5" to="-653473569#5" /><trip id="119" type="default_017" depart="57707.10000000017" from="27920078#0" to="201956820" /><trip id="120" type="default_017" depart="57708.000000000175" from="653473569#5" to="201956811#0" /><trip id="121" type="default_017" depart="57708.900000000176" from="315358253#1" to="202070434#2" /><trip id="122" type="default_017" depart="57709.80000000018" from="315358253#1" to="32978638#0" /><trip id="123" type="default_017" depart="57710.70000000018" from="-32978638#0" to="-315358253#1" /><trip id="124" type="default_016" depart="57711.60000000018" from="-32978638#0" to="202070434#2" /><trip id="125" type="default_018" depart="57712.50000000018" from="-32999434#1" to="-266565295#5" /><trip id="126" type="default_016" depart="57713.40000000018" from="10425609#0" to="201956810" /><trip id="127" type="default_017" depart="57714.300000000185" from="27920078#0" to="-83304175#2" /><trip id="128" type="default_017" depart="57715.200000000186" from="124812856#0" to="202070434#2" /><trip id="129" type="default_016" depart="57716.10000000019" from="-24693977#1" to="201956820" /><trip id="130" type="default_016" depart="57717.00000000019" from="-173169611#0" to="-83304175#2" /><trip id="131" type="default_017" depart="57717.90000000019" from="124812856#0" to="-83304175#2" /><trip id="132" type="default_016" depart="57718.80000000019" from="266565295#5" to="24693977#1" /><trip id="133" type="default_017" depart="57719.70000000019" from="653473569#5" to="201956811#0" /><trip id="134" type="default_016" depart="57720.600000000195" from="653473569#5" to="201956811#0" /><trip id="135" type="default_017" depart="57721.5000000002" from="315358253#1" to="32978638#0" /><trip id="136" type="default_017" depart="57722.4000000002" from="124812856#0" to="202070434#2" /><trip id="137" type="default_017" depart="57723.3000000002" from="315358253#1" to="32978638#0" /><trip id="138" type="default_017" depart="57724.2000000002" from="-32978638#0" to="24693977#1" /><trip id="139" type="default_017" depart="57725.1000000002" from="124812856#0" to="-653473569#5" /><trip id="140" type="default_016" depart="57726.000000000204" from="315358253#1" to="-266565295#5" /><trip id="141" type="default_016" depart="57726.900000000205" from="-32978638#0" to="-315358253#1" /><trip id="142" type="default_017" depart="57727.80000000021" from="27920078#0" to="-83304175#2" /><trip id="143" type="default_016" depart="57728.70000000021" from="-24693977#1" to="-266565295#5" /><trip id="144" type="default_017" depart="57729.60000000021" from="266565295#5" to="24693977#1" /><trip id="145" type="default_016" depart="57730.50000000021" from="-32978638#0" to="-315358253#1" /><trip id="146" type="default_016" depart="57731.40000000021" from="10425609#0" to="-653473569#5" /><trip id="147" type="random_017" depart="57732.300000000214" from="653473569#5" to="201956820" /><trip id="148" type="default_016" depart="57733.200000000215" from="266565295#5" to="202070434#2" /><trip id="149" type="default_017" depart="57734.10000000022" from="315358253#1" to="32978638#0" /><trip id="150" type="default_016" depart="57735.00000000022" from="27920078#0" to="201956820" /><trip id="151" type="default_017" depart="57735.90000000022" from="315358253#1" to="-266565295#5" /><trip id="152" type="default_017" depart="57736.80000000022" from="266565295#5" to="202070434#2" /><trip id="153" type="default_016" depart="57737.70000000022" from="653473569#5" to="-266565295#5" /><trip id="154" type="bus" depart="57738.600000000224" from="-24693977#1" to="32978638#0" /><trip id="155" type="bus" depart="57739.500000000226" from="-32978638#0" to="-315358253#1" /><trip id="156" type="default_016" depart="57740.40000000023" from="-32978638#0" to="-315358253#1" /><trip id="157" type="default_017" depart="57741.30000000023" from="24599188#0.94" to="24693977#1" /><trip id="158" type="default_016" depart="57742.20000000023" from="27920078#0" to="201956820" /><trip id="159" type="bus" depart="57743.10000000023" from="315358253#1" to="32978638#0" /><trip id="160" type="default_017" depart="57744.00000000023" from="-24693977#1" to="-266565295#5" /><trip id="161" type="default_017" depart="57744.900000000234" from="27920078#0" to="201956820" /><trip id="162" type="default_016" depart="57745.800000000236" from="25145012#7" to="201956820" /><trip id="163" type="default_016" depart="57746.70000000024" from="653473569#5" to="201956820" /><trip id="164" type="default_017" depart="57747.60000000024" from="-24693977#1" to="32978638#0" /><trip id="165" type="default_017" depart="57748.50000000024" from="10425609#0" to="-653473569#5" /><trip id="166" type="default_017" depart="57749.40000000024" from="24608844" to="32978638#0" /><trip id="167" type="default_017" depart="57750.30000000024" from="27920078#0" to="-315358253#1" /><trip id="168" type="default_017" depart="57751.200000000244" from="124812856#0" to="202070434#2" /><trip id="169" type="default_017" depart="57752.100000000246" from="653473569#5" to="201956811#0" /><trip id="170" type="default_017" depart="57753.00000000025" from="124812856#0" to="202070434#2" /><trip id="171" type="default_017" depart="57753.90000000025" from="24599188#0.94" to="24693977#1" /><trip id="172" type="default_016" depart="57754.80000000025" from="27920078#0" to="-83304175#2" /><trip id="173" type="default_017" depart="57755.70000000025" from="653473569#5" to="201956811#0" /><trip id="174" type="default_017" depart="57756.60000000025" from="-173169611#0" to="201956820" /><trip id="175" type="default_017" depart="57757.500000000255" from="32021112#0" to="202070434#2" /><trip id="176" type="default_017" depart="57758.400000000256" from="-32978638#0" to="24693977#1" /><trip id="177" type="default_017" depart="57759.30000000026" from="124812856#0" to="-653473569#5" /><trip id="178" type="default_017" depart="57760.20000000026" from="27920078#0" to="201956820" /><trip id="179" type="default_016" depart="57761.10000000026" from="27920078#0" to="201956811#0" /><trip id="180" type="default_016" depart="57762.00000000026" from="27920078#0" to="-83304175#2" /><trip id="181" type="default_017" depart="57762.90000000026" from="-32978638#0" to="-315358253#1" /><trip id="182" type="default_017" depart="57763.800000000265" from="124812856#0" to="202070434#2" /><trip id="183" type="default_016" depart="57764.700000000266" from="653473569#5" to="-83304175#2" /><trip id="184" type="default_017" depart="57765.60000000027" from="27920078#0" to="-266565295#5" /><trip id="185" type="default_017" depart="57766.50000000027" from="-22716549#6" to="-653473569#5" /><trip id="186" type="default_016" depart="57767.40000000027" from="315358253#1" to="32978638#0" /><trip id="187" type="default_017" depart="57768.30000000027" from="27920078#0" to="201956820" /><trip id="188" type="default_016" depart="57769.20000000027" from="124812856#0" to="-653473569#5" /><trip id="189" type="default_017" depart="57770.100000000275" from="124812856#0" to="202070434#2" /><trip id="190" type="default_016" depart="57771.00000000028" from="10425609#0" to="-653473569#5" /><trip id="191" type="default_017" depart="57771.90000000028" from="-24634415" to="-24634415" /><trip id="192" type="default_016" depart="57772.80000000028" from="653473569#5" to="201956820" /><trip id="193" type="default_017" depart="57773.70000000028" from="10425609#0" to="-653473569#5" /><trip id="194" type="default_017" depart="57774.60000000028" from="653473569#5" to="-266565295#5" /><trip id="195" type="default_016" depart="57775.500000000284" from="-24693977#1" to="-266565295#5" /><trip id="196" type="default_016" depart="57776.400000000285" from="10425609#0" to="-653473569#5" /><trip id="197" type="default_017" depart="57777.30000000029" from="653473569#5" to="201956820" /><trip id="198" type="default_017" depart="57778.20000000029" from="124812856#0" to="202070434#2" /><trip id="199" type="default_017" depart="57779.10000000029" from="-32978638#0" to="-315358253#1" /><trip id="200" type="default_016" depart="57780.00000000029" from="10425609#0" to="-653473569#5" /><trip id="201" type="default_016" depart="57780.90000000029" from="-32978638#0" to="-315358253#1" /><trip id="202" type="default_017" depart="57781.800000000294" from="27920078#0" to="201956820" /><trip id="203" type="default_016" depart="57782.700000000295" from="27920078#0" to="-266565295#5" /><trip id="204" type="default_016" depart="57783.6000000003" from="10425609#0" to="-653473569#5" /><trip id="205" type="default_017" depart="57784.5000000003" from="25145012#7" to="201956820" /><trip id="206" type="default_017" depart="57785.4000000003" from="124812856#0" to="-315358253#1" /><trip id="207" type="default_017" depart="57786.3000000003" from="653473569#5" to="-315358253#1" /><trip id="208" type="default_016" depart="57787.2000000003" from="124812856#0" to="-653473569#5" /><trip id="209" type="default_017" depart="57788.100000000304" from="653473569#5" to="-315358253#1" /><trip id="210" type="default_016" depart="57789.000000000306" from="266565295#5" to="-315358253#1" /><trip id="211" type="default_017" depart="57789.90000000031" from="653473569#5" to="201956811#0" /><trip id="212" type="default_017" depart="57790.80000000031" from="266565295#5" to="24693977#1" /><trip id="213" type="default_017" depart="57791.70000000031" from="27920078#0" to="201956820" /><trip id="214" type="default_017" depart="57792.60000000031" from="124812856#0" to="201956810" /><trip id="215" type="default_017" depart="57793.50000000031" from="124812856#0" to="-653473569#5" /><trip id="216" type="default_017" depart="57794.400000000314" from="-32978638#0" to="-266565295#5" /><trip id="217" type="default_018" depart="57795.300000000316" from="-24693977#1" to="-266565295#5" /><trip id="218" type="default_016" depart="57796.20000000032" from="124812856#0" to="202070434#2" /><trip id="219" type="default_017" depart="57797.10000000032" from="315358253#1" to="32978638#0" /><trip id="220" type="default_016" depart="57798.00000000032" from="27920078#0" to="201956820" /><trip id="221" type="default_017" depart="57798.90000000032" from="124812856#0" to="-653473569#5" /><trip id="222" type="default_016" depart="57799.80000000032" from="10425609#0" to="-653473569#5" /><trip id="223" type="default_017" depart="57800.700000000325" from="653473569#5" to="201956820" /><trip id="224" type="default_017" depart="57801.600000000326" from="315358253#1" to="201956810" /><trip id="225" type="default_016" depart="57802.50000000033" from="124812856#0" to="202070434#2" /><trip id="226" type="random_016" depart="57803.40000000033" from="10425609#0" to="201956810" /><trip id="227" type="default_017" depart="57804.30000000033" from="-24693977#1" to="-266565295#5" /><trip id="228" type="default_016" depart="57805.20000000033" from="10425609#0" to="-653473569#5" /><trip id="229" type="default_017" depart="57806.10000000033" from="-24608844" to="-24608844" /><trip id="230" type="default_016" depart="57807.000000000335" from="266565295#5" to="202070434#2" /><trip id="231" type="default_016" depart="57807.900000000336" from="-32978638#0" to="-315358253#1" /><trip id="232" type="default_017" depart="57808.80000000034" from="653473569#5" to="-83304175#2" /><trip id="233" type="default_016" depart="57809.70000000034" from="-32978638#0" to="24693977#1" /><trip id="234" type="default_016" depart="57810.60000000034" from="124812856#0" to="202070434#2" /><trip id="235" type="default_016" depart="57811.50000000034" from="-32978638#0" to="-315358253#1" /><trip id="236" type="default_016" depart="57812.40000000034" from="653473569#5" to="201956820" /><trip id="237" type="default_017" depart="57813.300000000345" from="-24693977#1" to="201956820" /><trip id="238" type="default_017" depart="57814.200000000346" from="653473569#5" to="201956811#0" /><trip id="239" type="default_017" depart="57815.10000000035" from="315358253#1" to="24693977#1" /><trip id="240" type="default_016" depart="57816.00000000035" from="-24693977#1" to="-266565295#5" /><trip id="241" type="random_016" depart="57816.90000000035" from="-173169611#0" to="-315358253#1" /><trip id="242" type="random_017" depart="57817.80000000035" from="653473569#5" to="201956820" /><trip id="243" type="default_017" depart="57818.70000000035" from="653473569#5" to="201956811#0" /><trip id="244" type="default_017" depart="57819.600000000355" from="-32978638#0" to="-315358253#1" /><trip id="245" type="default_017" depart="57820.50000000036" from="27920078#0" to="201956820" /><trip id="246" type="default_017" depart="57821.40000000036" from="-32978638#0" to="-315358253#1" /><trip id="247" type="default_016" depart="57822.30000000036" from="-24693977#1" to="32978638#0" /><trip id="248" type="default_016" depart="57823.20000000036" from="653473569#5" to="201956811#0" /><trip id="249" type="default_017" depart="57824.10000000036" from="124812856#0" to="201956810" /><trip id="250" type="default_017" depart="57825.000000000364" from="124812856#0" to="24693977#1" /><trip id="251" type="default_017" depart="57825.900000000365" from="653473569#5" to="201956811#0" /><trip id="252" type="default_016" depart="57826.80000000037" from="266565295#5" to="-104010328" /><trip id="253" type="default_016" depart="57827.70000000037" from="10425609#0" to="201956810" /><trip id="254" type="default_017" depart="57828.60000000037" from="266565295#5" to="24693977#1" /><trip id="255" type="default_016" depart="57829.50000000037" from="653473569#5" to="201956811#0" /><trip id="256" type="default_016" depart="57830.40000000037" from="124812856#0" to="24693977#1" /><trip id="257" type="default_017" depart="57831.300000000374" from="10425609#0" to="-653473569#5" /><trip id="258" type="default_017" depart="57832.200000000375" from="124812856#0" to="-653473569#5" /><trip id="259" type="default_016" depart="57833.10000000038" from="653473569#5" to="201956811#0" /><trip id="260" type="default_016" depart="57834.00000000038" from="27920078#0" to="-266565295#5" /><trip id="261" type="default_017" depart="57834.90000000038" from="124812856#0" to="202070434#2" /><trip id="262" type="default_016" depart="57835.80000000038" from="24599188#0.94" to="24693977#1" /><trip id="263" type="default_016" depart="57836.70000000038" from="266565295#5" to="202070434#2" /><trip id="264" type="default_017" depart="57837.600000000384" from="266565295#5" to="24693977#1" /><trip id="265" type="default_016" depart="57838.500000000386" from="653473569#5" to="-266565295#5" /><trip id="266" type="default_017" depart="57839.40000000039" from="124812856#0" to="-653473569#5" /><trip id="267" type="default_017" depart="57840.30000000039" from="124812856#0" to="201956810" /><trip id="268" type="default_016" depart="57841.20000000039" from="24599188#0.94" to="24599188#0.94" /><trip id="269" type="default_017" depart="57842.10000000039" from="653473569#5" to="201956820" /><trip id="270" type="default_017" depart="57843.00000000039" from="10425609#0" to="-653473569#5" /><trip id="271" type="default_016" depart="57843.900000000394" from="27920078#0" to="201956811#0" /><trip id="272" type="default_017" depart="57844.800000000396" from="25145012#7" to="201956811#0" /><trip id="273" type="default_016" depart="57845.7000000004" from="266565295#5" to="-315358253#1" /><trip id="274" type="default_016" depart="57846.6000000004" from="10425609#0" to="-653473569#5" /><trip id="275" type="default_016" depart="57847.5000000004" from="-24693977#1" to="-266565295#5" /><trip id="276" type="default_017" depart="57848.4000000004" from="124812856#0" to="-653473569#