<routes xmlns:xsi="http://www.w3.org/2001/XMLSchema-instance" xsi:noNamespaceSchemaLocation="http://sumo.dlr.de/xsd/routes_file.xsd">
	<vType id="pkw" vClass="passenger" speedDev="0.1" length="4.3" minGap="1.5" />
<trip id="0" type="pkw" depart="25200" from="27115123#2" to="32324544#0" /><trip id="1" type="pkw" depart="25201.786600496278" from="23429231#1" to="32038051#0" /><trip id="2" type="pkw" depart="25203.573200992556" from="23429231#1" to="32038051#0" /><trip id="3" type="pkw" depart="25205.359801488834" from="130165204" to="-28198821#4" /><trip id="4" type="pkw" depart="25207.146401985112" from="23429231#1" to="32038056#0" /><trip id="5" type="pkw" depart="25208.93300248139" from="23429231#1" to="32038051#0" /><trip id="6" type="pkw" depart="25210.719602977668" from="27115123#2" to="32324544#0" /><trip id="7" type="pkw" depart="25212.506203473946" from="-32038056#3" to="-28198821#4" /><trip id="8" type="pkw" depart="25214.292803970224" from="-32038056#3" to="32324544#0" /><trip id="9" type="pkw" depart="25216.0794044665" from="-32038056#3" to="-28198821#4" /><trip id="10" type="pkw" depart="25217.86600496278" from="27115123#2" to="32324544#0" /><trip id="11" type="pkw" depart="25219.652605459058" from="23429231#1" to="-28198821#4" /><trip id="12" type="pkw" depart="25221.439205955336" from="-32038056#3" to="32038051#0" /><trip id="13" type="pkw" depart="25223.225806451614" from="28198821#3" to="32038051#0" /><trip id="14" type="pkw" depart="25225.01240694789" from="27115123#2" to="32038051#0" /><trip id="15" type="pkw" depart="25226.79900744417" from="130165204" to="130165204" /><trip id="16" type="pkw" depart="25228.585607940448" from="28198821#3" to="32038051#0" /><trip id="17" type="pkw" depart="25230.372208436725" from="23429231#1" to="-28198821#4" /><trip id="18" type="pkw" depart="25232.158808933003" from="23429231#1" to="32038056#0" /><trip id="19" type="pkw" depart="25233.94540942928" from="23429231#1" to="32038051#0" /><trip id="20" type="pkw" depart="25235.73200992556" from="23429231#1" to="32038051#0" /><trip id="21" type="pkw" depart="25237.518610421837" from="-32038056#3" to="-28198821#4" /><trip id="22" type="pkw" depart="25239.305210918115" from="-32038056#3" to="32038051#0" /><trip id="23" type="pkw" depart="25241.091811414393" from="130165204" to="32038056#0" /><trip id="24" type="pkw" depart="25242.87841191067" from="28198821#3" to="32038051#0" /><trip id="25" type="pkw" depart="25244.66501240695" from="23429231#1" to="32038051#0" /><trip id="26" type="pkw" depart="25246.451612903227" from="28198821#3" to="32038051#0" /><trip id="27" type="pkw" depart="25248.238213399505" from="27115123#2" to="32038056#0" /><trip id="28" type="pkw" depart="25250.024813895783" from="-32038056#3" to="32038051#0" /><trip id="29" type="pkw" depart="25251.81141439206" from="23429231#1" to="32038051#0" /><trip id="30" type="pkw" depart="25253.59801488834" from="28198821#3" to="32038056#0" /><trip id="31" type="pkw" depart="25255.384615384617" from="28198821#3" to="32038056#0" /><trip id="32" type="pkw" depart="25257.171215880895" from="27115123#2" to="32038051#0" /><trip id="33" type="pkw" depart="25258.957816377173" from="23429231#1" to="32038056#0" /><trip id="34" type="pkw" depart="25260.74441687345" from="-32038056#3" to="32038051#0" /><trip id="35" type="pkw" depart="25262.53101736973" from="-32038056#3" to="-28198821#4" /><trip id="36" type="pkw" depart="25264.317617866007" from="27115123#2" to="32324544#0" /><trip id="37" type="pkw" depart="25266.104218362285" from="23429231#1" to="32038056#0" /><trip id="38" type="pkw" depart="25267.890818858563" from="23429231#1" to="-28198821#4" /><trip id="39" type="pkw" depart="25269.67741935484" from="27115123#2" to="32324544#0" /><trip id="40" type="pkw" depart="25271.46401985112" from="23429231#1" to="32038051#0" /><trip id="41" type="pkw" depart="25273.250620347397" from="-32038056#3" to="32038051#0" /><trip id="42" type="pkw" depart="25275.037220843675" from="23429231#1" to="32038051#0" /><trip id="43" type="pkw" depart="25276.823821339953" from="23429231#1" to="32038051#0" /><trip id="44" type="pkw" depart="25278.61042183623" from="-32038056#3" to="32038051#0" /><trip id="45" type="pkw" depart="25280.39702233251" from="28198821#3" to="32038056#0" /><trip id="46" type="pkw" depart="25282.183622828787" from="23429231#1" to="32038056#0" /><trip id="47" type="pkw" depart="25283.970223325065" from="23429231#1" to="32324544#0" /><trip id="48" type="pkw" depart="25285.756823821343" from="-32038056#3" to="32038056#0" /><trip id="49" type="pkw" depart="25287.54342431762" from="-32038056#3" to="-28198821#4" /><trip id="50" type="pkw" depart="25289.3300248139" from="28198821#3" to="32038051#0" /><trip id="51" type="pkw" depart="25291.116625310176" from="23429231#1" to="32038056#0" /><trip id="52" type="pkw" depart="25292.903225806454" from="-32038056#3" to="-28198821#4" /><trip id="53" type="pkw" depart="25294.689826302732" from="28198821#3" to="32038056#0" /><trip id="54" type="pkw" depart="25296.47642679901" from="-32038056#3" to="-28198821#4" /><trip id="55" type="pkw" depart="25298.26302729529" from="28198821#3" to="32038056#0" /><trip id="56" type="pkw" depart="25300.049627791566" from="-32038056#3" to="32324544#0" /><trip id="57" type="pkw" depart="25301.836228287844" from="27115123#2" to="32324544#0" /><trip id="58" type="pkw" depart="25303.622828784122" from="23429231#1" to="32038051#0" /><trip id="59" type="pkw" depart="25305.4094292804" from="27115123#2" to="32324544#0" /><trip id="60" type="pkw" depart="25307.19602977668" from="-32038056#3" to="32038051#0" /><trip id="61" type="pkw" depart="25308.982630272956" from="23429231#1" to="32038056#0" /><trip id="62" type="pkw" depart="25310.769230769234" from="-32038056#3" to="-28198821#4" /><trip id="63" type="pkw" depart="25312.555831265512" from="-32038056#3" to="32038051#0" /><trip id="64" type="pkw" depart="25314.34243176179" from="-32038056#3" to="32038051#0" /><trip id="65" type="pkw" depart="25316.129032258068" from="-32038056#3" to="32324544#0" /><trip id="66" type="pkw" depart="25317.915632754346" from="27115123#2" to="32038051#0" /><trip id="67" type="pkw" depart="25319.702233250624" from="28198821#3" to="32038056#0" /><trip id="68" type="pkw" depart="25321.488833746902" from="-32038056#3" to="32038051#0" /><trip id="69" type="pkw" depart="25323.27543424318" from="28198821#3" to="32324544#0" /><trip id="70" type="pkw" depart="25325.062034739458" from="130165204" to="32038051#0" /><trip id="71" type="pkw" depart="25326.848635235736" from="23429231#1" to="32038051#0" /><trip id="72" type="pkw" depart="25328.635235732014" from="23429231#1" to="32038051#0" /><trip id="73" type="pkw" depart="25330.42183622829" from="-32038056#3" to="32038051#0" /><trip id="74" type="pkw" depart="25332.20843672457" from="-32038056#3" to="32038051#0" /><trip id="75" type="pkw" depart="25333.995037220848" from="-32038056#3" to="-28198821#4" /><trip id="76" type="pkw" depart="25335.781637717126" from="28198821#3" to="32038051#0" /><trip id="77" type="pkw" depart="25337.568238213404" from="27115123#2" to="32038051#0" /><trip id="78" type="pkw" depart="25339.35483870968" from="23429231#1" to="32038051#0" /><trip id="79" type="pkw" depart="25341.14143920596" from="28198821#3" to="32038056#0" /><trip id="80" type="pkw" depart="25342.928039702238" from="23429231#1" to="32038056#0" /><trip id="81" type="pkw" depart="25344.714640198516" from="23429231#1" to="32038051#0" /><trip id="82" type="pkw" depart="25346.501240694794" from="28198821#3" to="32324544#0" /><trip id="83" type="pkw" depart="25348.28784119107" from="27115123#2" to="32324544#0" /><trip id="84" type="pkw" depart="25350.07444168735" from="28198821#3" to="32038051#0" /><trip id="85" type="pkw" depart="25351.861042183627" from="-32038056#3" to="32038056#0" /><trip id="86" type="pkw" depart="25353.647642679905" from="28198821#3" to="32038056#0" /><trip id="87" type="pkw" depart="25355.434243176183" from="23429231#1" to="32038056#0" /><trip id="88" type="pkw" depart="25357.22084367246" from="-32038056#3" to="32038051#0" /><trip id="89" type="pkw" depart="25359.00744416874" from="28198821#3" to="32038056#0" /><trip id="90" type="pkw" depart="25360.794044665017" from="28198821#3" to="32038051#0" /><trip id="91" type="pkw" depart="25362.580645161295" from="-32038056#3" to="-28198821#4" /><trip id="92" type="pkw" depart="25364.367245657573" from="28198821#3" to="32038056#0" /><trip id="93" type="pkw" depart="25366.15384615385" from="23429231#1" to="32324544#0" /><trip id="94" type="pkw" depart="25367.94044665013" from="28198821#3" to="32038051#0" /><trip id="95" type="pkw" depart="25369.727047146407" from="28198821#3" to="32038056#0" /><trip id="96" type="pkw" depart="25371.513647642685" from="-32038056#3" to="32038051#0" /><trip id="97" type="pkw" depart="25373.300248138963" from="-32038056#3" to="-28198821#4" /><trip id="98" type="pkw" depart="25375.08684863524" from="23429231#1" to="32038051#0" /><trip id="99" type="pkw" depart="25376.87344913152" from="-32038056#3" to="-28198821#4" /><trip id="100" type="pkw" depart="25378.660049627797" from="28198821#3" to="32038056#0" /><trip id="101" type="pkw" depart="25380.446650124075" from="23429231#1" to="32038051#0" /><trip id="102" type="pkw" depart="25382.233250620353" from="23429231#1" to="32038051#0" /><trip id="103" type="pkw" depart="25384.01985111663" from="27115123#2" to="32324544#0" /><trip id="104" type="pkw" depart="25385.80645161291" from="23429231#1" to="32038051#0" /><trip id="105" type="pkw" depart="25387.593052109187" from="23429231#1" to="32038051#0" /><trip id="106" type="pkw" depart="25389.379652605465" from="23429231#1" to="32038051#0" /><trip id="107" type="pkw" depart="25391.166253101743" from="28198821#3" to="32038056#0" /><trip id="108" type="pkw" depart="25392.95285359802" from="28198821#3" to="32038051#0" /><trip id="109" type="pkw" depart="25394.7394540943" from="130165204" to="130165204" /><trip id="110" type="pkw" depart="25396.526054590577" from="28198821#3" to="32324544#0" /><trip id="111" type="pkw" depart="25398.312655086855" from="23429231#1" to="32038056#0" /><trip id="112" type="pkw" depart="25400.099255583133" from="23429231#1" to="32324544#0" /><trip id="113" type="pkw" depart="25401.88585607941" from="-32038056#3" to="-28198821#4" /><trip id="114" type="pkw" depart="25403.67245657569" from="-32038056#3" to="32038051#0" /><trip id="115" type="pkw" depart="25405.459057071967" from="-32038056#3" to="-28198821#4" /><trip id="116" type="pkw" depart="25407.245657568244" from="23429231#1" to="32038056#0" /><trip id="117" type="pkw" depart="25409.032258064522" from="28198821#3" to="32038051#0" /><trip id="118" type="pkw" depart="25410.8188585608" from="23429231#1" to="32038051#0" /><trip id="119" type="pkw" depart="25412.60545905708" from="28198821#3" to="32038056#0" /><trip id="120" type="pkw" depart="25414.392059553356" from="-32038056#3" to="32038051#0" /><trip id="121" type="pkw" depart="25416.178660049634" from="28198821#3" to="32324544#0" /><trip id="122" type="pkw" depart="25417.965260545912" from="28198821#3" to="32038056#0" /><trip id="123" type="pkw" depart="25419.75186104219" from="28198821#3" to="32038051#0" /><trip id="124" type="pkw" depart="25421.53846153847" from="23429231#1" to="32038051#0" /><trip id="125" type="pkw" depart="25423.325062034746" from="28198821#3" to="32038051#0" /><trip id="126" type="pkw" depart="25425.111662531024" from="-32038056#3" to="-28198821#4" /><trip id="127" type="pkw" depart="25426.898263027302" from="23429231#1" to="32038056#0" /><trip id="128" type="pkw" depart="25428.68486352358" from="28198821#3" to="32038056#0" /><trip id="129" type="pkw" depart="25430.471464019858" from="-32038056#3" to="-28198821#4" /><trip id="130" type="pkw" depart="25432.258064516136" from="23429231#1" to="32038051#0" /><trip id="131" type="pkw" depart="25434.044665012414" from="28198821#3" to="32038051#0" /><trip id="132" type="pkw" depart="25435.831265508692" from="-32038056#3" to="32038051#0" /><trip id="133" type="pkw" depart="25437.61786600497" from="28198821#3" to="32038051#0" /><trip id="134" type="pkw" depart="25439.404466501248" from="23429231#1" to="32038051#0" /><trip id="135" type="pkw" depart="25441.191066997526" from="27115123#2" to="32038051#0" /><trip id="136" type="pkw" depart="25442.977667493804" from="28198821#3" to="32038056#0" /><trip id="137" type="pkw" depart="25444.764267990082" from="-32038056#3" to="32038051#0" /><trip id="138" type="pkw" depart="25446.55086848636" from="-32038056#3" to="32324544#0" /><trip id="139" type="pkw" depart="25448.337468982638" from="23429231#1" to="32038056#0" /><trip id="140" type="pkw" depart="25450.124069478916" from="130165204" to="32324544#0" /><trip id="141" type="pkw" depart="25451.910669975194" from="-32038056#3" to="32038051#0" /><trip id="142" type="pkw" depart="25453.69727047147" from="28198821#3" to="32038051#0" /><trip id="143" type="pkw" depart="25455.48387096775" from="28198821#3" to="32038051#0" /><trip id="144" type="pkw" depart="25457.270471464028" from="-32038056#3" to="-28198821#4" /><trip id="145" type="pkw" depart="25459.057071960306" from="27115123#2" to="32038051#0" /><trip id="146" type="pkw" depart="25460.843672456584" from="130165204" to="32324544#0" /><trip id="147" type="pkw" depart="25462.63027295286" from="-32038056#3" to="-28198821#4" /><trip id="148" type="pkw" depart="25464.41687344914" from="-32038056#3" to="-28198821#4" /><trip id="149" type="pkw" depart="25466.203473945417" from="-32038056#3" to="32038051#0" /><trip id="150" type="pkw" depart="25467.990074441695" from="27115123#2" to="32038051#0" /><trip id="151" type="pkw" depart="25469.776674937973" from="-32038056#3" to="-28198821#4" /><trip id="152" type="pkw" depart="25471.56327543425" from="130165204" to="130165204" /><trip id="153" type="pkw" depart="25473.34987593053" from="23429231#1" to="32038051#0" /><trip id="154" type="pkw" depart="25475.136476426807" from="-32038056#3" to="32038051#0" /><trip id="155" type="pkw" depart="25476.923076923085" from="-32038056#3" to="32038051#0" /><trip id="156" type="pkw" depart="25478.709677419363" from="23429231#1" to="32038051#0" /><trip id="157" type="pkw" depart="25480.49627791564" from="23429231#1" to="32038051#0" /><trip id="158" type="pkw" depart="25482.28287841192" from="28198821#3" to="32038051#0" /><trip id="159" type="pkw" depart="25484.069478908197" from="23429231#1" to="32324544#0" /><trip id="160" type="pkw" depart="25485.856079404475" from="23429231#1" to="32038051#0" /><trip id="161" type="pkw" depart="25487.642679900753" from="23429231#1" to="32038051#0" /><trip id="162" type="pkw" depart="25489.42928039703" from="28198821#3" to="32038056#0" /><trip id="163" type="pkw" depart="25491.21588089331" from="-32038056#3" to="-28198821#4" /><trip id="164" type="pkw" depart="25493.002481389587" from="28198821#3" to="32038056#0" /><trip id="165" type="pkw" depart="25494.789081885865" from="27115123#2" to="32038056#0" /><trip id="166" type="pkw" depart="25496.575682382143" from="23429231#1" to="32038056#0" /><trip id="167" type="pkw" depart="25498.36228287842" from="28198821#3" to="32038051#0" /><trip id="168" type="pkw" depart="25500.1488833747" from="130165204" to="32038051#0" /><trip id="169" type="pkw" depart="25501.935483870977" from="23429231#1" to="32038051#0" /><trip id="170" type="pkw" depart="25503.722084367255" from="28198821#3" to="32038051#0" /><trip id="171" type="pkw" depart="25505.508684863533" from="23429231#1" to="-28198821#4" /><trip id="172" type="pkw" depart="25507.29528535981" from="130165204" to="130165204" /><trip id="173" type="pkw" depart="25509.08188585609" from="-32038056#3" to="32324544#0" /><trip id="174" type="pkw" depart="25510.868486352367" from="23429231#1" to="32038051#0" /><trip id="175" type="pkw" depart="25512.655086848645" from="28198821#3" to="32324544#0" /><trip id="176" type="pkw" depart="25514.441687344923" from="28198821#3" to="32038056#0" /><trip id="177" type="pkw" depart="25516.2282878412" from="-32038056#3" to="32038051#0" /><trip id="178" type="pkw" depart="25518.01488833748" from="28198821#3" to="32324544#0" /><trip id="179" type="pkw" depart="25519.801488833757" from="130165204" to="32324544#0" /><trip id="180" type="pkw" depart="25521.588089330035" from="23429231#1" to="32038056#0" /><trip id="181" type="pkw" depart="25523.374689826313" from="23429231#1" to="32038051#0" /><trip id="182" type="pkw" depart="25525.16129032259" from="-32038056#3" to="32038051#0" /><trip id="183" type="pkw" depart="25526.94789081887" from="-32038056#3" to="32038051#0" /><trip id="184" type="pkw" depart="25528.734491315146" from="23429231#1" to="32038051#0" /><trip id="185" type="pkw" depart="25530.521091811424" from="28198821#3" to="32038056#0" /><trip id="186" type="pkw" depart="25532.307692307702" from="-32038056#3" to="32038051#0" /><trip id="187" type="pkw" depart="25534.09429280398" from="23429231#1" to="32038051#0" /><trip id="188" type="pkw" depart="25535.88089330026" from="28198821#3" to="32038051#0" /><trip id="189" type="pkw" depart="25537.667493796536" from="28198821#3" to="32038056#0" /><trip id="190" type="pkw" depart="25539.454094292814" from="-32038056#3" to="32038051#0" /><trip id="191" type="pkw" depart="25541.240694789092" from="-32038056#3" to="-28198821#4" /><trip id="192" type="pkw" depart="25543.02729528537" from="27115123#2" to="32324544#0" /><trip id="193" type="pkw" depart="25544.813895781648" from="27115123#2" to="32038056#0" /><trip id="194" type="pkw" depart="25546.600496277926" from="28198821#3" to="32038056#0" /><trip id="195" type="pkw" depart="25548.387096774204" from="28198821#3" to="32038051#0" /><trip id="196" type="pkw" depart="25550.173697270482" from="-32038056#3" to="32038051#0" /><trip id="197" type="pkw" depart="25551.96029776676" from="-32038056#3" to="-28198821#4" /><trip id="198" type="pkw" depart="25553.746898263038" from="-32038056#3" to="-28198821#4" /><trip id="199" type="pkw" depart="25555.533498759316" from="28198821#3" to="32038056#0" /><trip id="200" type="pkw" depart="25557.320099255594" from="-32038056#3" to="-28198821#4" /><trip id="201" type="pkw" depart="25559.106699751872" from="27115123#2" to="32038056#0" /><trip id="202" type="pkw" depart="25560.89330024815" from="27115123#2" to="32038051#0" /><trip id="203" type="pkw" depart="25562.679900744428" from="23429231#1" to="32038051#0" /><trip id="204" type="pkw" depart="25564.466501240706" from="130165204" to="32038051#0" /><trip id="205" type="pkw" depart="25566.253101736984" from="23429231#1" to="32038051#0" /><trip id="206" type="pkw" depart="25568.03970223326" from="27115123#2" to="32324544#0" /><trip id="207" type="pkw" depart="25569.82630272954" from="130165204" to="32038051#0" /><trip id="208" type="pkw" depart="25571.612903225818" from="23429231#1" to="32038056#0" /><trip id="209" type="pkw" depart="25573.399503722096" from="27115123#2" to="32038056#0" /><trip id="210" type="pkw" depart="25575.186104218374" from="28198821#3" to="32038056#0" /><trip id="211" type="pkw" depart="25576.97270471465" from="130165204" to="32324544#0" /><trip id="212" type="pkw" depart="25578.75930521093" from="27115123#2" to="32324544#0" /><trip id="213" type="pkw" depart="25580.545905707208" from="-32038056#3" to="-28198821#4" /><trip id="214" type="pkw" depart="25582.332506203486" from="23429231#1" to="32038051#0" /><trip id="215" type="pkw" depart="25584.119106699764" from="-32038056#3" to="-28198821#4" /><trip id="216" type="pkw" depart="25585.90570719604" from="28198821#3" to="32038056#0" /><trip id="217" type="pkw" depart="25587.69230769232" from="28198821#3" to="32038051#0" /><trip id="218" type="pkw" depart="25589.478908188597" from="23429231#1" to="32038051#0" /><trip id="219" type="pkw" depart="25591.265508684875" from="-32038056#3" to="32038051#0" /><trip id="220" type="pkw" depart="25593.052109181153" from="27115123#2" to="32038056#0" /><trip id="221" type="pkw" depart="25594.83870967743" from="23429231#1" to="-28198821#4" /><trip id="222" type="pkw" depart="25596.62531017371" from="130165204" to="32038051#0" /><trip id="223" type="pkw" depart="25598.411910669987" from="23429231#1" to="32038051#0" /><trip id="224" type="pkw" depart="25600.198511166265" from="23429231#1" to="32038051#0" /><trip id="225" type="pkw" depart="25601.985111662543" from="23429231#1" to="32038051#0" /><trip id="226" type="pkw" depart="25603.77171215882" from="-32038056#3" to="32038051#0" /><trip id="227" type="pkw" depart="25605.5583126551" from="28198821#3" to="32038056#0" /><trip id="228" type="pkw" depart="25607.344913151377" from="-32038056#3" to="-28198821#4" /><trip id="229" type="pkw" depart="25609.131513647655" from="28198821#3" to="32038051#0" /><trip id="230" type="pkw" depart="25610.918114143933" from="23429231#1" to="32038051#0" /><trip id="231" type="pkw" depart="25612.70471464021" from="-32038056#3" to="-28198821#4" /><trip id="232" type="pkw" depart="25614.49131513649" from="28198821#3" to="32038056#0" /><trip id="233" type="pkw" depart="25616.277915632767" from="-32038056#3" to="-28198821#4" /><trip id="234" type="pkw" depart="25618.064516129045" from="23429231#1" to="32038056#0" /><trip id="235" type="pkw" depart="25619.851116625323" from="-32038056#3" to="-28198821#4" /><trip id="236" type="pkw" depart="25621.6377171216" from="23429231#1" to="32038051#0" /><trip id="237" type="pkw" depart="25623.42431761788" from="-32038056#3" to="32038051#0" /><trip id="238" type="pkw" depart="25625.210918114157" from="28198821#3" to="32038056#0" /><trip id="239" type="pkw" depart="25626.997518610435" from="23429231#1" to="32038056#0" /><trip id="240" type="pkw" depart="25628.784119106713" from="23429231#1" to="32038051#0" /><trip id="241" type="pkw" depart="25630.57071960299" from="23429231#1" to="-28198821#4" /><trip id="242" type="pkw" depart="25632.35732009927" from="-32038056#3" to="-28198821#4" /><trip id="243" type="pkw" depart="25634.143920595547" from="-32038056#3" to="-28198821#4" /><trip id="244" type="pkw" depart="25635.930521091825" from="23429231#1" to="32038051#0" /><trip id="245" type="pkw" depart="25637.717121588103" from="28198821#3" to="32038051#0" /><trip id="246" type="pkw" depart="25639.50372208438" from="28198821#3" to="32038056#0" /><trip id="247" type="pkw" depart="25641.29032258066" from="27115123#2" to="32324544#0" /><trip id="248" type="pkw" depart="25643.076923076937" from="28198821#3" to="32324544#0" /><trip id="249" type="pkw" depart="25644.863523573214" from="-32038056#3" to="32038051#0" /><trip id="250" type="pkw" depart="25646.650124069492" from="23429231#1" to="32038051#0" /><trip id="251" type="pkw" depart="25648.43672456577" from="27115123#2" to="32038051#0" /><trip id="252" type="pkw" depart="25650.22332506205" from="-32038056#3" to="-28198821#4" /><trip id="253" type="pkw" depart="25652.009925558326" from="-32038056#3" to="32038051#0" /><trip id="254" type="pkw" depart="25653.796526054604" from="23429231#1" to="32038056#0" /><trip id="255" type="pkw" depart="25655.583126550882" from="28198821#3" to="32038051#0" /><trip id="256" type="pkw" depart="25657.36972704716" from="28198821#3" to="32038056#0" /><trip id="257" type="pkw" depart="25659.15632754344" from="-32038056#3" to="-28198821#4" /><trip id="258" type="pkw" depart="25660.942928039716" from="23429231#1" to="32038056#0" /><trip id="259" type="pkw" depart="25662.729528535994" from="-32038056#3" to="32038051#0" /><trip id="260" type="pkw" depart="25664.516129032272" from="28198821#3" to="32324544#0" /><trip id="261" type="pkw" depart="25666.30272952855" from="23429231#1" to="32038051#0" /><trip id="262" type="pkw" depart="25668.089330024828" from="130165204" to="-28198821#4" /><trip id="263" type="pkw" depart="25669.875930521106" from="23429231#1" to="32038051#0" /><trip id="264" type="pkw" depart="25671.662531017384" from="-32038056#3" to="-28198821#4" /><trip id="265" type="pkw" depart="25673.449131513662" from="23429231#1" to="32038051#0" /><trip id="266" type="pkw" depart="25675.23573200994" from="28198821#3" to="32038051#0" /><trip id="267" type="pkw" depart="25677.022332506218" from="-32038056#3" to="-28198821#4" /><trip id="268" type="pkw" depart="25678.808933002496" from="23429231#1" to="32038051#0" /><trip id="269" type="pkw" depart="25680.595533498774" from="27115123#2" to="32038051#0" /><trip id="270" type="pkw" depart="25682.382133995052" from="23429231#1" to="32038051#0" /><trip id="271" type="pkw" depart="25684.16873449133" from="130165204" to="32038056#0" /><trip id="272" type="pkw" depart="25685.955334987608" from="23429231#1" to="32038051#0" /><trip id="273" type="pkw" depart="25687.741935483886" from="28198821#3" to="32324544#0" /><trip id="274" type="pkw" depart="25689.528535980164" from="-32038056#3" to="32038051#0" /><trip id="275" type="pkw" depart="25691.31513647644" from="23429231#1" to="-28198821#4" /><trip id="276" type="pkw" depart="25693.10173697272" from="-32038056#3" to="-28198821#4" /><trip id="277" type="pkw" depart="25694.888337468998" from="-32038056#3" to="32038051#0" /><trip id="278" type="pkw" depart="25696.674937965276" from="23429231#1" to="32324544#0" /><trip id="279" type="pkw" depart="25698.461538461554" from="130165204" to="32324544#0" /><trip id="280" type="pkw" depart="25700.24813895783" from="23429231#1" to="32038056#0" /><trip id="281" type="pkw" depart="25702.03473945411" from="-32038056#3" to="-28198821#4" /><trip id="282" type="pkw" depart="25703.821339950387" from="-32038056#3" to="32038051#0" /><trip id="283" type="pkw" depart="25705.607940446665" from="23429231#1" to="32038056#0" /><trip id="284" type="pkw" depart="25707.394540942943" from="23429231#1" to="32324544#0" /><trip id="285" type="pkw" depart="25709.18114143922" from="-32038056#3" to="32038051#0" /><trip id="286" type="pkw" depart="25710.9677419355" from="23429231#1" to="32038051#0" /><trip id="287" type="pkw" depart="25712.754342431777" from="23429231#1" to="32324544#0" /><trip id="288" type="pkw" depart="25714.540942928055" from="28198821#3" to="32038056#0" /><trip id="289" type="pkw" depart="25716.327543424333" from="130165204" to="32038056#0" /><trip id="290" type="pkw" depart="25718.11414392061" from="23429231#1" to="32038056#0" /><trip id="291" type="pkw" depart="25719.90074441689" from="-32038056#3" to="32038051#0" /><trip id="292" type="pkw" depart="25721.687344913167" from="23429231#1" to="32038051#0" /><trip id="293" type="pkw" depart="25723.473945409445" from="-32038056#3" to="32038051#0" /><trip id="294" type="pkw" depart="25725.260545905723" from="28198821#3" to="32038051#0" /><trip id="295" type="pkw" depart="25727.047146402" from="-32038056#3" to="-28198821#4" /><trip id="296" type="pkw" depart="25728.83374689828" from="-32038056#3" to="-28198821#4" /><trip id="297" type="pkw" depart="25730.620347394557" from="23429231#1" to="32038051#0" /><trip id="298" type="pkw" depart="25732.406947890835" from="27115123#2" to="32038051#0" /><trip id="299" type="pkw" depart="25734.193548387113" from="28198821#3" to="32324544#0" /><trip id="300" type="pkw" depart="25735.98014888339" from="28198821#3" to="32038056#0" /><trip id="301" type="pkw" depart="25737.76674937967" from="130165204" to="32038056#0" /><trip id="302" type="pkw" depart="25739.553349875947" from="-32038056#3" to="32324544#0" /><trip id="303" type="pkw" depart="25741.339950372225" from="-32038056#3" to="-28198821#4" /><trip id="304" type="pkw" depart="25743.126550868503" from="23429231#1" to="32038051#0" /><trip id="305" type="pkw" depart="25744.91315136478" from="23429231#1" to="32038051#0" /><trip id="306" type="pkw" depart="25746.69975186106" from="28198821#3" to="32038056#0" /><trip id="307" type="pkw" depart="25748.486352357337" from="28198821#3" to="32038051#0" /><trip id="308" type="pkw" depart="25750.272952853615" from="23429231#1" to="32038051#0" /><trip id="309" type="pkw" depart="25752.059553349893" from="28198821#3" to="32038051#0" /><trip id="310" type="pkw" depart="25753.84615384617" from="23429231#1" to="32038051#0" /><trip id="311" type="pkw" depart="25755.63275434245" from="-32038056#3" to="-28198821#4" /><trip id="312" type="pkw" depart="25757.419354838727" from="-32038056#3" to="-28198821#4" /><trip id="313" type="pkw" depart="25759.205955335005" from="23429231#1" to="32038056#0" /><trip id="314" type="pkw" depart="25760.992555831283" from="23429231#1" to="32038051#0" /><trip id="315" type="pkw" depart="25762.77915632756" from="23429231#1" to="32038051#0" /><trip id="316" type="pkw" depart="25764.56575682384" from="27115123#2" to="32038051#0" /><trip id="317" type="pkw" depart="25766.352357320116" from="23429231#1" to="-28198821#4" /><trip id="318" type="pkw" depart="25768.138957816394" from="23429231#1" to="32038051#0" /><trip id="319" type="pkw" depart="25769.925558312672" from="28198821#3" to="32038056#0" /><trip id="320" type="pkw" depart="25771.71215880895" from="28198821#3" to="32324544#0" /><trip id="321" type="pkw" depart="25773.49875930523" from="28198821#3" to="32324544#0" /><trip id="322" type="pkw" depart="25775.285359801506" from="27115123#2" to="32324544#0" /><trip id="323" type="pkw" depart="25777.071960297784" from="28198821#3" to="32038051#0" /><trip id="324" type="pkw" depart="25778.858560794062" from="23429231#1" to="32038056#0" /><trip id="325" type="pkw" depart="25780.64516129034" from="130165204" to="32324544#0" /><trip id="326" type="pkw" depart="25782.431761786618" from="28198821#3" to="32324544#0" /><trip id="327" type="pkw" depart="25784.218362282896" from="23429231#1" to="32038051#0" /><trip id="328" type="pkw" depart="25786.004962779174" from="23429231#1" to="32038051#0" /><trip id="329" type="pkw" depart="25787.791563275452" from="27115123#2" to="32324544#0" /><trip id="330" type="pkw" depart="25789.57816377173" from="28198821#3" to="32324544#0" /><trip id="331" type="pkw" depart="25791.364764268008" from="28198821#3" to="32038056#0" /><trip id="332" type="pkw" depart="25793.