<routes xmlns:xsi="http://www.w3.org/2001/XMLSchema-instance" xsi:noNamespaceSchemaLocation="http://sumo.dlr.de/xsd/routes_file.xsd">
	<vType id="pkw" vClass="passenger" speedDev="0.1" length="4.3" minGap="1.5" />
<vehicle id="0" type="pkw" depart="25200"><route edges="31864804 200818108#0 4999331#0" /></vehicle><vehicle id="1" type="pkw" depart="25200.6"><route edges="319261593#12 319261593#15 319261593#16 4145590#0" /></vehicle><vehicle id="2" type="pkw" depart="25201.199999999997"><route edges="-5229966#3 319261593#15 319261593#16 4145590#0" /></vehicle><vehicle id="3" type="pkw" depart="25201.799999999996"><route edges="4999334 -241660955#5 31800061#0" /></vehicle><vehicle id="4" type="pkw" depart="25202.399999999994"><route edges="-5229966#3 319261593#15 319261593#16 4145590#0" /></vehicle><vehicle id="5" type="pkw" depart="25202.999999999993"><route edges="241660957#0 4999331#0" /></vehicle><vehicle id="6" type="pkw" depart="25203.59999999999"><route edges="241660957#0 241660955#0 241660955#4 241660955#6 241660955#7 -241660955#9 -241660955#6 -241660955#5 -41910186" /></vehicle><vehicle id="7" type="pkw" depart="25204.19999999999"><route edges="4045329#5 241660955#10 241660955#11 241660955#13 241660955#14 241660955#17" /></vehicle><vehicle id="8" type="pkw" depart="25204.79999999999"><route edges="-5229966#3 319261593#15 319261593#16 241660955#0 241660955#4 241660955#6 241660955#7 241660955#10 241660955#11 -241660955#12 -241660955#10 41910185#0 -41910185#2 -241660955#9 241660955#7 241660955#10 241660955#11 241660955#13 241660955#14 241660955#17" /></vehicle><vehicle id="9" type="pkw" depart="25205.399999999987"><route edges="-31800061#0 -41910186" /></vehicle><vehicle id="10" type="pkw" depart="25205.999999999985"><route edges="241660957#0 4999331#0" /></vehicle><vehicle id="11" type="pkw" depart="25206.599999999984"><route edges="41910184 241660955#13 241660955#14 241660955#17" /></vehicle><vehicle id="12" type="pkw" depart="25207.199999999983"><route edges="41910184 241660955#13 241660955#14 241660955#17" /></vehicle><vehicle id="13" type="pkw" depart="25207.79999999998"><route edges="-241660955#17 -241660955#16 -241660955#13 -241660955#12 -241660955#10 -241660955#9 -241660955#6 -241660955#5 -241660955#3 -200818108#1 -31864804" /></vehicle><vehicle id="14" type="pkw" depart="25208.39999999998"><route edges="241660957#0 4999331#0" /></vehicle><vehicle id="15" type="pkw" depart="25208.999999999978"><route edges="31864804 200818108#0 241660955#0 -41910186" /></vehicle><vehicle id="16" type="pkw" depart="25209.599999999977"><route edges="41910184 241660955#13 4145589#0" /></vehicle><vehicle id="17" type="pkw" depart="25210.199999999975"><route edges="-31800061#0 241660955#4 241660955#6 241660955#7 241660955#10 241660955#11 241660955#13 241660955#14 241660955#17" /></vehicle><vehicle id="18" type="pkw" depart="25210.799999999974"><route edges="31864804 200818108#0 241660955#0 241660955#4 -4999334" /></vehicle><vehicle id="19" type="pkw" depart="25211.399999999972"><route edges="31864804 200818108#0 4999331#0" /></vehicle><vehicle id="20" type="pkw" depart="25211.99999999997"><route edges="-241660955#17 -241660955#16 -241660955#13 -241660955#12 -241660955#10 -241660955#9 -241660955#6 -241660955#5 -241660955#3 4999331#0" /></vehicle><vehicle id="21" type="pkw" depart="25212.59999999997"><route edges="31864804 200818108#0 241660955#0 -41910186" /></vehicle><vehicle id="22" type="pkw" depart="25213.199999999968"><route edges="-5229966#3 319261593#15 319261593#16 -200818108#1 -31864804" /></vehicle><vehicle id="23" type="pkw" depart="25213.799999999967"><route edges="-241660955#17 -241660955#16 -241660955#13 -241660955#12 -241660955#10 -4045329#5" /></vehicle><vehicle id="24" type="pkw" depart="25214.399999999965"><route edges="31864804 200818108#0 4999331#0" /></vehicle><vehicle id="25" type="pkw" depart="25214.999999999964"><route edges="-241660955#17 -241660955#16 -241660955#13 -241660955#12 -241660955#10 -241660955#9 -241660955#6 -241660955#5 31800061#0" /></vehicle><vehicle id="26" type="pkw" depart="25215.599999999962"><route edges="41910184 241660955#13 241660955#14 241660955#17" /></vehicle><vehicle id="27" type="pkw" depart="25216.19999999996"><route edges="241660955#13 241660955#14 241660955#17" /></vehicle><vehicle id="28" type="pkw" depart="25216.79999999996"><route edges="31864804 200818108#0 4999331#0" /></vehicle><vehicle id="29" type="pkw" depart="25217.399999999958"><route edges="-241660955#17 -241660955#16 -241660955#13 -41910184" /></vehicle><vehicle id="30" type="pkw" depart="25217.999999999956"><route edges="31864804 200818108#0 4999331#0" /></vehicle><vehicle id="31" type="pkw" depart="25218.599999999955"><route edges="-5229966#3 319261593#15 319261593#16 4145590#0" /></vehicle><vehicle id="32" type="pkw" depart="25219.199999999953"><route edges="31864804 200818108#0 4145590#0" /></vehicle><vehicle id="33" type="pkw" depart="25219.799999999952"><route edges="4999334 -241660955#5 -241660955#3 -200818108#1 -31864804" /></vehicle><vehicle id="34" type="pkw" depart="25220.39999999995"><route edges="241660957#0 4999331#0" /></vehicle><vehicle id="35" type="pkw" depart="25220.99999999995"><route edges="41910186 -241660955#3 4145590#0" /></vehicle><vehicle id="36" type="pkw" depart="25221.599999999948"><route edges="-130160207#0 241660955#17" /></vehicle><vehicle id="37" type="pkw" depart="25222.199999999946"><route edges="4045329#5 -241660955#9 4045332#0" /></vehicle><vehicle id="38" type="pkw" depart="25222.799999999945"><route edges="-31800061#0 -41910186" /></vehicle><vehicle id="39" type="pkw" depart="25223.399999999943"><route edges="241660957#0 4999331#0" /></vehicle><vehicle id="40" type="pkw" depart="25223.99999999994"><route edges="31864804 200818108#0 4999331#0" /></vehicle><vehicle id="41" type="pkw" depart="25224.59999999994"><route edges="-241660955#17 130160207#0 -130160207#0 241660955#17 -241660955#17 -241660955#16 -241660955#13 -41910184" /></vehicle><vehicle id="42" type="pkw" depart="25225.19999999994"><route edges="31864804 200818108#0 241660955#0 -41910186 41910186 -241660955#3 4999331#0" /></vehicle><vehicle id="43" type="pkw" depart="25225.799999999937"><route edges="4999334 -241660955#5 -241660955#3 -200818108#1 -31864804" /></vehicle><vehicle id="44" type="pkw" depart="25226.399999999936"><route edges="241660957#0 4999331#0" /></vehicle><vehicle id="45" type="pkw" depart="25226.999999999935"><route edges="-31800061#0 241660955#4 -4999334" /></vehicle><vehicle id="46" type="pkw" depart="25227.599999999933"><route edges="-5229966#3 319261593#15 319261593#16 4999331#0" /></vehicle><vehicle id="47" type="pkw" depart="25228.19999999993"><route edges="-31800061#0 -41910186" /></vehicle><vehicle id="48" type="pkw" depart="25228.79999999993"><route edges="41910184 241660955#13 241660955#14 241660955#17" /></vehicle><vehicle id="49" type="pkw" depart="25229.39999999993"><route edges="4045329#5 41910185#0" /></vehicle><vehicle id="50" type="pkw" depart="25229.999999999927"><route edges="241660957#0 4999331#0" /></vehicle><vehicle id="51" type="pkw" depart="25230.599999999926"><route edges="31864804 200818108#0 4145590#0" /></vehicle><vehicle id="52" type="pkw" depart="25231.199999999924"><route edges="-241660955#17 -241660955#16 -241660955#13 -41910184" /></vehicle><vehicle id="53" type="pkw" depart="25231.799999999923"><route edges="241660955#13 241660955#14 241660955#17" /></vehicle><vehicle id="54" type="pkw" depart="25232.39999999992"><route edges="241660957#0 4999331#0" /></vehicle><vehicle id="55" type="pkw" depart="25232.99999999992"><route edges="-5229966#3 319261593#15 319261593#16 241660955#0 31800061#0" /></vehicle><vehicle id="56" type="pkw" depart="25233.59999999992"><route edges="-241660955#17 -241660955#16 -241660955#13 -241660955#12 -241660955#10 -241660955#9 -241660955#6 -241660955#5 -241660955#3 -200818108#1 -31864804" /></vehicle><vehicle id="57" type="pkw" depart="25234.199999999917"><route edges="319261593#12 319261593#15 319261593#16 -200818108#1 -31864804" /></vehicle><vehicle id="58" type="pkw" depart="25234.799999999916"><route edges="41910186 31800061#0" /></vehicle><vehicle id="59" type="pkw" depart="25235.399999999914"><route edges="319261593#12 319261593#15 319261593#16 4145590#0" /></vehicle><vehicle id="60" type="pkw" depart="25235.999999999913"><route edges="241660957#0 4999331#0" /></vehicle><vehicle id="61" type="pkw" depart="25236.59999999991"><route edges="241660957#0 4999331#0" /></vehicle><vehicle id="62" type="pkw" depart="25237.19999999991"><route edges="241660957#0 4999331#0" /></vehicle><vehicle id="63" type="pkw" depart="25237.79999999991"><route edges="319261593#12 319261593#15 319261593#16 4145590#0" /></vehicle><vehicle id="64" type="pkw" depart="25238.399999999907"><route edges="-41910186" /></vehicle><vehicle id="65" type="pkw" depart="25238.999999999905"><route edges="-130160207#0 241660955#17" /></vehicle><vehicle id="66" type="pkw" depart="25239.599999999904"><route edges="319261593#12 319261593#15 319261593#16 4145590#0" /></vehicle><vehicle id="67" type="pkw" depart="25240.199999999903"><route edges="41910184 241660955#13 241660955#14 241660955#17 -241660955#17 -241660955#16 -241660955#13 -241660955#12 241660955#11 241660955#13 241660955#14 241660955#17" /></vehicle><vehicle id="68" type="pkw" depart="25240.7999999999"><route edges="-130160207#0 -241660955#16 -241660955#13 -41910184" /></vehicle><vehicle id="69" type="pkw" depart="25241.3999999999"><route edges="41910186 -241660955#3 4145590#0" /></vehicle><vehicle id="70" type="pkw" depart="25241.999999999898"><route edges="41910186 -241660955#3 -200818108#1 -31864804" /></vehicle><vehicle id="71" type="pkw" depart="25242.599999999897"><route edges="241660957#0 4999331#0" /></vehicle><vehicle id="72" type="pkw" depart="25243.199999999895"><route edges="241660957#0 4999331#0" /></vehicle><vehicle id="73" type="pkw" depart="25243.799999999894"><route edges="-130160207#0 241660955#17 -241660955#17 -241660955#16 -241660955#13 -41910184" /></vehicle><vehicle id="74" type="pkw" depart="25244.399999999892"><route edges="-31800061#0 241660955#4 -4999334" /></vehicle><vehicle id="75" type="pkw" depart="25244.99999999989"><route edges="-41910185#2 -4045329#5" /></vehicle><vehicle id="76" type="pkw" depart="25245.59999999989"><route edges="241660957#0 4999331#0" /></vehicle><vehicle id="77" type="pkw" depart="25246.199999999888"><route edges="-241660955#17 -241660955#16 -241660955#13 -241660955#12 -241660955#10 -241660955#9 -241660955#6 -241660955#5 -41910186" /></vehicle><vehicle id="78" type="pkw" depart="25246.799999999886"><route edges="241660957#0 4999331#0" /></vehicle><vehicle id="79" type="pkw" depart="25247.399999999885"><route edges="-41910185#2 -4045329#5" /></vehicle><vehicle id="80" type="pkw" depart="25247.999999999884"><route edges="319261593#12 319261593#15 8197886#0 -31864804" /></vehicle><vehicle id="81" type="pkw" depart="25248.599999999882"><route edges="31864804 200818108#0 241660955#0 241660955#4 -4999334" /></vehicle><vehicle id="82" type="pkw" depart="25249.19999999988"><route edges="31864804 200818108#0 4999331#0" /></vehicle><vehicle id="83" type="pkw" depart="25249.79999999988"><route edges="-5229966#3 319261593#15 319261593#16 -200818108#1 -31864804" /></vehicle><vehicle id="84" type="pkw" depart="25250.399999999878"><route edges="41910186 -241660955#3 -200818108#1 -31864804" /></vehicle><vehicle id="85" type="pkw" depart="25250.999999999876"><route edges="319261593#12 319261593#15 8197886#0 -31864804" /></vehicle><vehicle id="86" type="pkw" depart="25251.599999999875"><route edges="31864804 200818108#0 241660955#0 241660955#4 241660955#6 241660955#7 41910185#0" /></vehicle><vehicle id="87" type="pkw" depart="25252.199999999873"><route edges="241660957#0 4999331#0" /></vehicle><vehicle id="88" type="pkw" depart="25252.799999999872"><route edges="31864804 200818108#0 4999331#0" /></vehicle><vehicle id="89" type="pkw" depart="25253.39999999987"><route edges="-130160207#0 241660955#17" /></vehicle><vehicle id="90" type="pkw" depart="25253.99999999987"><route edges="241660957#0 4999331#0" /></vehicle><vehicle id="91" type="pkw" depart="25254.599999999868"><route edges="319261593#12 319261593#15 319261593#16 4145590#0" /></vehicle><vehicle id="92" type="pkw" depart="25255.199999999866"><route edges="31864804 200818108#0 4145590#0" /></vehicle><vehicle id="93" type="pkw" depart="25255.799999999865"><route edges="241660957#0 4999331#0" /></vehicle><vehicle id="94" type="pkw" depart="25256.399999999863"><route edges="4045329#5 -241660955#9 -241660955#6 -241660955#5 31800061#0" /></vehicle><vehicle id="95" type="pkw" depart="25256.99999999986"><route edges="41910184 241660955#13 4145589#0" /></vehicle><vehicle id="96" type="pkw" depart="25257.59999999986"><route edges="41910184 -241660955#12 -4045330" /></vehicle><vehicle id="97" type="pkw" depart="25258.19999999986"><route edges="241660957#0 4999331#0" /></vehicle><vehicle id="98" type="pkw" depart="25258.799999999857"><route edges="4045329#5 -241660955#9 4045332#0" /></vehicle><vehicle id="99" type="pkw" depart="25259.399999999856"><route edges="41910184 241660955#13 241660955#14 -241660955#16 -241660955#13 -241660955#12 241660955#11 241660955#13 241660955#14 241660955#17" /></vehicle><vehicle id="100" type="pkw" depart="25259.999999999854"><route edges="41910186 -241660955#3 -200818108#1 -31864804" /></vehicle><vehicle id="101" type="pkw" depart="25260.599999999853"><route edges="-130160207#0 241660955#17" /></vehicle><vehicle id="102" type="pkw" depart="25261.19999999985"><route edges="241660957#0 4999331#0" /></vehicle><vehicle id="103" type="pkw" depart="25261.79999999985"><route edges="319261593#12 319261593#15 8197886#0 -31864804" /></vehicle><vehicle id="104" type="pkw" depart="25262.39999999985"><route edges="-241660955#17 -241660955#16 -241660955#13 -241660955#12 -241660955#10 -241660955#9 -241660955#6 -241660955#5 -241660955#3 -200818108#1 -31864804" /></vehicle><vehicle id="105" type="pkw" depart="25262.999999999847"><route edges="31864804 200818108#0 4999331#0" /></vehicle><vehicle id="106" type="pkw" depart="25263.599999999846"><route edges="241660957#0 4999331#0" /></vehicle><vehicle id="107" type="pkw" depart="25264.199999999844"><route edges="31864804 200818108#0 4999331#0" /></vehicle><vehicle id="108" type="pkw" depart="25264.799999999843"><route edges="-5229966#3 319261593#15 319261593#16 241660955#0 241660955#4 241660955#6 241660955#7 241660955#10 241660955#11 241660955#13 4145589#0" /></vehicle><vehicle id="109" type="pkw" depart="25265.39999999984"><route edges="241660955#6 4045332#0" /></vehicle><vehicle id="110" type="pkw" depart="25265.99999999984"><route edges="-130160207#0 241660955#17" /></vehicle><vehicle id="111" type="pkw" depart="25266.59999999984"><route edges="241660957#0 4999331#0" /></vehicle><vehicle id="112" type="pkw" depart="25267.199999999837"><route edges="-241660955#17 -241660955#16 -241660955#13 -241660955#12 -241660955#10 -241660955#9 4045332#0" /></vehicle><vehicle id="113" type="pkw" depart="25267.799999999836"><route edges="31864804 200818108#0 241660955#0 241660955#4 241660955#6 241660955#7 241660955#10 241660955#11 241660955#13 241660955#14 241660955#17" /></vehicle><vehicle id="114" type="pkw" depart="25268.399999999834"><route edges="-41910185#2 -4045329#5" /></vehicle><vehicle id="115" type="pkw" depart="25268.999999999833"><route edges="-241660955#17 130160207#0 -130160207#0 241660955#17 -241660955#17 -241660955#16 4145589#0" /></vehicle><vehicle id="116" type="pkw" depart="25269.59999999983"><route edges="241660957#0 4999331#0" /></vehicle><vehicle id="117" type="pkw" depart="25270.19999999983"><route edges="-130160207#0 -241660955#16 -241660955#13 -41910184" /></vehicle><vehicle id="118" type="pkw" depart="25270.79999999983"><route edges="-41910185#2 -4045329#5" /></vehicle><vehicle id="119" type="pkw" depart="25271.399999999827"><route edges="41910184 241660955#13 241660955#14 241660955#17" /></vehicle><vehicle id="120" type="pkw" depart="25271.999999999825"><route edges="31864804 200818108#0 241660955#0 241660955#4 241660955#6 241660955#7 241660955#10 241660955#11 241660955#13 241660955#14 241660955#17" /></vehicle><vehicle id="121" type="pkw" depart="25272.599999999824"><route edges="31864804 200818108#0 4999331#0" /></vehicle><vehicle id="122" type="pkw" depart="25273.199999999822"><route edges="-130160207#0 -241660955#16 -241660955#13 -41910184" /></vehicle><vehicle id="123" type="pkw" depart="25273.79999999982"><route edges="241660957#0 4999331#0" /></vehicle><vehicle id="124" type="pkw" depart="25274.39999999982"><route edges="41910186 -241660955#3 -200818108#1 -31864804" /></vehicle><vehicle id="125" type="pkw" depart="25274.999999999818"><route edges="-241660955#17 -241660955#16 -241660955#13 -41910184" /></vehicle><vehicle id="126" type="pkw" depart="25275.599999999817"><route edges="31864804 200818108#0 4145590#0" /></vehicle><vehicle id="127" type="pkw" depart="25276.199999999815"><route edges="-5229966#3 319261593#15 8197886#0 200818108#0 241660955#0 -41910186" /></vehicle><vehicle id="128" type="pkw" depart="25276.799999999814"><route edges="4045330 241660955#11 241660955#13 -241660955#13 -41910184" /></vehicle><vehicle id="129" type="pkw" depart="25277.399999999812"><route edges="41910184 241660955#13 241660955#14 241660955#17" /></vehicle><vehicle id="130" type="pkw" depart="25277.99999999981"><route edges="-31800061#0 241660955#4 241660955#6 241660955#7 -4045329#5" /></vehicle><vehicle id="131" type="pkw" depart="25278.59999999981"><route edges="4999334 -241660955#5 31800061#0" /></vehicle><vehicle id="132" type="pkw" depart="25279.199999999808"><route edges="-41910185#2 -4045329#5" /></vehicle><vehicle id="133" type="pkw" depart="25279.799999999806"><route edges="241660957#0 4999331#0" /></vehicle><vehicle id="134" type="pkw" depart="25280.399999999805"><route edges="-241660955#17 -241660955#16 -241660955#13 -241660955#12 -241660955#10 41910185#0" /></vehicle><vehicle id="135" type="pkw" depart="25280.999999999804"><route edges="241660957#0 4999331#0" /></vehicle><vehicle id="136" type="pkw" depart="25281.599999999802"><route edges="241660957#0 241660955#0 241660955#4 241660955#6 241660955#7 -4045329#5" /></vehicle><vehicle id="137" type="pkw" depart="25282.1999999998"><route edges="-130160207#0 241660955#17" /></vehicle><vehicle id="138" type="pkw" depart="25282.7999999998"><route edges="-241660955#17 -241660955#16 -241660955#13 -241660955#12 -241660955#10 -241660955#9 -241660955#6 -241660955#5 -241660955#3 -200818108#1 -31864804" /></vehicle><vehicle id="139" type="pkw" depart="25283.399999999798"><route edges="319261593#12 319261593#15 319261593#16 4145590#0" /></vehicle><vehicle id="140" type="pkw" depart="25283.999999999796"><route edges="31864804 200818108#0 241660955#0 -41910186" /></vehicle><vehicle id="141" type="pkw" depart="25284.599999999795"><route edges="41910184 241660955#13 241660955#14 241660955#17" /></vehicle><vehicle id="142" type="pkw" depart="25285.199999999793"><route edges="241660957#0 4999331#0" /></vehicle><vehicle id="143" type="pkw" depart="25285.799999999792"><route edges="-5229966#3 319261593#15 319261593#16 4145590#0" /></vehicle><vehicle id="144" type="pkw" depart="25286.39999999979"><route edges="319261593#12 319261593#15 319261593#16 -200818108#1 -31864804" /></vehicle><vehicle id="145" type="pkw" depart="25286.99999999979"><route edges="4045329#5 41910185#0" /></vehicle><vehicle id="146" type="pkw" depart="25287.599999999788"><route edges="241660957#0 4999331#0" /></vehicle><vehicle id="147" type="pkw" depart="25288.199999999786"><route edges="241660957#0 4999331#0" /></vehicle><vehicle id="148" type="pkw" depart="25288.799999999785"><route edges="31864804 200818108#0 4999331#0" /></vehicle><vehicle id="149" type="pkw" depart="25289.399999999783"><route edges="319261593#12 319261593#15 319261593#16 -200818108#1 -31864804" /></vehicle><vehicle id="150" type="pkw" depart="25289.99999999978"><route edges="31864804 200818108#0 4999331#0" /></vehicle><vehicle id="151" type="pkw" depart="25290.59999999978"><route edges="31864804 200818108#0 4145590#0" /></vehicle><vehicle id="152" type="pkw" depart="25291.19999999978"><route edges="4045329#5 41910185#0" /></vehicle><vehicle id="153" type="pkw" depart="25291.799999999777"><route edges="-130160207#0 -241660955#16 -241660955#13 -41910184" /></vehicle><vehicle id="154" type="pkw" depart="25292.399999999776"><route edges="41910184 241660955#13 241660955#14 241660955#17" /></vehicle><vehicle id="155" type="pkw" depart="25292.999999999774"><route edges="41910184 241660955#13 241660955#14 241660955#17" /></vehicle><vehicle id="156" type="pkw" depart="25293.599999999773"><route edges="241660957#0 4999331#0" /></vehicle><vehicle id="157" type="pkw" depart="25294.19999999977"><route edges="-31800061#0 241660955#4 -4999334" /></vehicle><vehicle id="158" type="pkw" depart="25294.79999999977"><route edges="241660957#0 4999331#0" /></vehicle><vehicle id="159" type="pkw" depart="25295.39999999977"><route edges="241660957#0 4999331#0" /></vehicle><vehicle id="160" type="pkw" depart="25295.999999999767"><route edges="241660957#0 4999331#0" /></vehicle><vehicle id="161" type="pkw" depart="25296.599999999766"><route edges="31864804 200818108#0 241660955#0 241660955#4 241660955#6 241660955#7 241660955#10 241660955#11 241660955#13 241660955#14 241660955#17" /></vehicle><vehicle id="162" type="pkw" depart="25297.199999999764"><route edges="319261593#12 319261593#15 319261593#16 4145590#0" /></vehicle><vehicle id="163" type="pkw" depart="25297.799999999763"><route edges="4045329#5 41910185#0" /></vehicle><vehicle id="164" type="pkw" depart="25298.39999999976"><route edges="241660955#13 241660955#14 241660955#17" /></vehicle><vehicle id="165" type="pkw" depart="25298.99999999976"><route edges="41910184 241660955#13 241660955#14 241660955#17" /></vehicle><vehicle id="166" type="pkw" depart="25299.59999999976"><route edges="-241660955#17 -241660955#16 -241660955#13 -241660955#12 -241660955#10 -241660955#9 -241660955#6 -241660955#5 -241660955#3 -200818108#1 -31864804" /></vehicle><vehicle id="167" type="pkw" depart="25300.199999999757"><route edges="41910184 241660955#13 241660955#14 241660955#17" /></vehicle><vehicle id="168" type="pkw" depart="25300.799999999756"><route edges="-41910185#2 -4045329#5" /></vehicle><vehicle id="169" type="pkw" depart="25301.399999999754"><route edges="-130160207#0 241660955#17" /></vehicle><vehicle id="170" type="pkw" depart="25301.999999999753"><route edges="-130160207#0 -241660955#16 -241660955#13 -41910184" /></vehicle><vehicle id="171" type="pkw" depart="25302.59999999975"><route edges="41910184 241660955#13 241660955#14 241660955#17" /></vehicle><vehicle id="172" type="pkw" depart="25303.19999999975"><route edges="241660957#0 4999331#0" /></vehicle><vehicle id="173" type="pkw" depart="25303.79999999975"><route edges="-241660955#17 -241660955#16 -241660955#13 -241660955#12 -241660955#10 -241660955#9 -241660955#6 -241660955#5 -241660955#3 -200818108#1 -31864804" /></vehicle><vehicle id="174" type="pkw" depart="25304.399999999747"><route edges="-241660955#17 -241660955#16 -241660955#13 -41910184" /></vehicle><vehicle id="175" type="pkw" depart="25304.999999999745"><route edges="-130160207#0 241660955#17" /></vehicle><vehicle id="176" type="pkw" depart="25305.599999999744"><route edges="319261593#12 319261593#15 319261593#16 4145590#0" /></vehicle><vehicle id="177" type="pkw" depart="25306.199999999742"><route edges="-31800061#0 -41910186" /></vehicle><vehicle id="178" type="pkw" depart="25306.79999999974"><route edges="-41910185#2 -241660955#9 -241660955#6 -241660955#5 -241660955#3 -200818108#1 -31864804" /></vehicle><vehicle id="179" type="pkw" depart="25307.39999999974"><route edges="4999334 -241660955#5 -241660955#3 -200818108#1 -31864804" /></vehicle><vehicle id="180" type="pkw" depart="25307.999999999738"><route edges="319261593#12 319261593#15 319261593#16 4145590#0" /></vehicle><vehicle id="181" type="pkw" depart="25308.599999999737"><route edges="-130160207#0 241660955#17" /></vehicle><vehicle id="182" type="pkw" depart="25309.199999999735"><route edges="-130160207#0 241660955#17" /></vehicle><vehicle id="183" type="pkw" depart="25309.799999999734"><route edges="31864804 200818108#0 4999331#0" /></vehicle><vehicle id="184" type="pkw" depart="25310.399999999732"><route edges="4999334 -241660955#5 31800061#0" /></vehicle><vehicle id="185" type="pkw" depart="25310.99999999973"><route edges="-130160207#0 241660955#17" /></vehicle><vehicle id="186" type="pkw" depart="25311.59999999973"><route edges="241660957#0 4999331#0" /></vehicle><vehicle id="187" type="pkw" depart="25312.199999999728"><route edges="31864804 200818108#0 4999331#0" /></vehicle><vehicle id="188" type="pkw" depart="25312.799999999726"><route edges="-241660955#17 130160207#0" /></vehicle><vehicle id="189" type="pkw" depart="25313.399999999725"><route edges="-130160207#0 241660955#17" /></vehicle><vehicle id="190" type="pkw" depart="25313.999999999724"><route edges="-241660955#17 -241660955#16 -241660955#13 -241660955#12 -241660955#10 41910185#0" /></vehicle><vehicle id="191" type="pkw" depart="25314.599999999722"><route edges="41910184 241660955#13 241660955#14 241660955#17" /></vehicle><vehicle id="192" type="pkw" depart="25315.19999999972"><route edges="-241660955#17 -241660955#16 -241660955#13 -241660955#12 -241660955#10 -241660955#9 -241660955#6 -241660955#5 -241660955#3 -200818108#1 -31864804" /></vehicle><vehicle id="193" type="pkw" depart="25315.79999999972"><route edges="-130160207#0 241660955#17" /></vehicle><vehicle id="194" type="pkw" depart="25316.399999999718"><route edges="-4999334" /></vehicle><vehicle id="195" type="pkw" depart="25316.999999999716"><route edges="-241660955#17 -241660955#16 -241660955#13 -41910184" /></vehicle><vehicle id="196" type="pkw" depart="25317.599999999715"><route edges="41910186 -241660955#3 4145590#0" /></vehicle><vehicle id="197" type="pkw" depart="25318.199999999713"><route edges="31864804 200818108#0 4999331#0" /></vehicle><vehicle id="198" type="pkw" depart="25318.799999999712"><route edges="-241660955#17 130160207#0" /></vehicle><vehicle id="199" type="pkw" depart="25319.39999999971"><route edges="-5229966#3 319261593#15 319261593#16 241660955#0 241660955#4 241660955#6 241660955#7 241660955#10 241660955#11 241660955#13 241660955#14 241660955#17" /></vehicle><vehicle id="200" type="pkw" depart="25319.99999999971"><route edges="-130160207#0 -241660955#16 -241660955#13 -41910184" /></vehicle><vehicle id="201" type="pkw" depart="25320.599999999708"><route edges="31864804 200818108#0 4145590#0" /></vehicle><vehicle id="202" type="pkw" depart="25321.199999999706"><route edges="319261593#12 319261593#15 319261593#16 4145590#0" /></vehicle><vehicle id="203" type="pkw" depart="25321.799999999705"><route edges="31864804 200818108#0 241660955#0 241660955#4 241660955#6 241660955#7 241660955#10 241660955#11 241660955#13 241660955#14 241660955#17" /></vehicle><vehicle id="204" type="pkw" depart="25322.399999999703"><route edges="41910184 241660955#13 241660955#14 241660955#17" /></vehicle><vehicle id="205" type="pkw" depart="25322.9999999997"><route edges="41910186 -241660955#3 -200818108#1 -31864804" /></vehicle><vehicle id="206" type="pkw" depart="25323.5999999997"><route edges="241660957#0 241660955#0 241660955#4 241660955#6 241660955#7" /></vehicle><vehicle id="207" type="pkw" depart="25324.1999999997"><route edges="-130160207#0 241660955#17" /></vehicle><vehicle id="208" type="pkw" depart="25324.799999999697"><route edges="319261593#12 319261593#15 319261593#16 4145590#0" /></vehicle><vehicle id="209" type="pkw" depart="25325.399999999696"><route edges="-4999334 4999334 -241660955#5 31800061#0" /></vehicle><vehicle id="210" type="pkw" depart="25325.999999999694"><route edges="-130160207#0 241660955#17" /></vehicle><vehicle id="211" type="pkw" depart="25326.599999999693"><route edges="31864804 200818108#0 4999331#0" /></vehicle><vehicle id="212" type="pkw" depart="25327.19999999969"><route edges="31864804 200818108#0 4999331#0" /></vehicle><vehicle id="213" type="pkw" depart="25327.79999999969"><route edges="4999334 -241660955#5 -241660955#3 4999331#0" /></vehicle><vehicle id="214" type="pkw" depart="25328.39999999969"><route edges="241660957#0 4999331#0" /></vehicle><vehicle id="215" type="pkw" depart="25328.999999999687"><route edges="4045329#5 241660955#10 -4045330" /></vehicle><vehicle id="216" type="pkw" depart="25329.599999999686"><route edges="241660955#13 -241660955#13 -241660955#12 -241660955#10 -241660955#9 -241660955#6 -241660955#5 -241660955#3 -200818108#1 -31864804" /></vehicle><vehicle id="217" type="pkw" depart="25330.199999999684"><route edges="41910184 241660955#13 241660955#14 241660955#17" /></vehicle><vehicle id="218" type="pkw" depart="25330.799999999683"><route edges="241660957#0 4999331#0" /></vehicle><vehicle id="219" type="pkw" depart="25331.39999999968"><route edges="-130160207#0 -241660955#16 -241660955#13 -41910184" /></vehicle><vehicle id="220" type="pkw" depart="25331.99999999968"><route edges="319261593#12 319261593#15 8197886#0 -31864804" /></vehicle><vehicle id="221" type="pkw" depart="25332.59999999968"><route edges="41910186 31800061#0" /></vehicle><vehicle id="222" type="pkw" depart="25333.199999999677"><route edges="-241660955#17 -241660955#16 -241660955#13 -241660955#12 -241660955#10 41910185#0 -41910185#2 -241660955#9 -241660955#6 -241660955#5 -241660955#3 4145590#0" /></vehicle><vehicle id="223" type="pkw" depart="25333.799999999675"><route edges="-31800061#0 241660955#4 -4999334" /></vehicle><vehicle id="224" type="pkw" depart="25334.399999999674"><route edges="-31800061#0 -41910186" /></vehicle><vehicle id="225" type="pkw" depart="25334.999999999673"><route edges="41910186 -241660955#3 4999331#0" /></vehicle><vehicle id="