<routes xmlns:xsi="http://www.w3.org/2001/XMLSchema-instance" xsi:noNamespaceSchemaLocation="http://sumo.dlr.de/xsd/routes_file.xsd">
	<vType id="bus" vClass="bus" color="green" />
	<vType id="default_017" vClass="passenger" color="red" />
    <vType id="random_017" vClass="passenger" color="blue" />
	<vType id="default_016" vClass="passenger" color="red" />
    <vType id="random_016" vClass="passenger" color="blue" />
	<vType id="default_015" vClass="passenger" color="red" />
    <vType id="random_015" vClass="passenger" color="blue" />
	<vType id="default_014" vClass="passenger" color="red" />
    <vType id="random_014" vClass="passenger" color="blue" />
	<vType id="default_013" vClass="passenger" color="red" />
    <vType id="random_013" vClass="passenger" color="blue" />
    <vType id="default_012" vClass="passenger" color="red" />
    <vType id="random_012" vClass="passenger" color="blue" />
	<vType id="default_011" vClass="passenger" color="red" />
    <vType id="random_011" vClass="passenger" color="blue" />
	<vType id="default_010" vClass="passenger" color="red" />
    <vType id="random_010" vClass="passenger" color="blue" />
	<vType id="default_009" vClass="passenger" color="red" />
    <vType id="random_009" vClass="passenger" color="blue" />
	<vType id="default_008" vClass="passenger" color="red" />
    <vType id="random_008" vClass="passenger" color="blue" />
	<vType id="default_007" vClass="passenger" color="red" />
    <vType id="random_007" vClass="passenger" color="blue" />
	<vType id="default_006" vClass="passenger" color="red" />
    <vType id="random_006" vClass="passenger" color="blue" />
	<vType id="default_005" vClass="passenger" color="red" />
    <vType id="random_005" vClass="passenger" color="blue" />
	<vType id="default_004" vClass="passenger" color="red" />
    <vType id="random_004" vClass="passenger" color="blue" />
	<vType id="default_003" vClass="passenger" color="red" />
    <vType id="random_003" vClass="passenger" color="blue" />
	<vType id="default_022" vClass="passenger" color="red" />
    <vType id="random_022" vClass="passenger" color="blue" />
	<vType id="default_021" vClass="passenger" color="red" />
    <vType id="random_021" vClass="passenger" color="blue" />
	<vType id="default_020" vClass="passenger" color="red" />
    <vType id="random_020" vClass="passenger" color="blue" />
	<vType id="default_019" vClass="passenger" color="red" />
    <vType id="random_019" vClass="passenger" color="blue" />
	<vType id="default_018" vClass="passenger" color="red" />
    <vType id="random_018" vClass="passenger" color="blue" />
	<vType id="default_002" vClass="passenger" color="red" />
    <vType id="random_002" vClass="passenger" color="blue" />
	<vType id="default_001" vClass="passenger" color="red" />
    <vType id="random_001" vClass="passenger" color="blue" />
<trip id="0" type="default_016" depart="57600" from="104010354" to="124812857#0" /><trip id="1" type="default_017" depart="57603.6" from="201963537#1" to="-653473569#5" /><trip id="2" type="default_016" depart="57607.2" from="653473569#5" to="104012170" /><trip id="3" type="default_017" depart="57610.799999999996" from="653473569#5" to="124812857#0" /><trip id="4" type="random_017" depart="57614.399999999994" from="104010354" to="124812857#0" /><trip id="5" type="default_017" depart="57617.99999999999" from="653473569#5" to="104012170" /><trip id="6" type="default_016" depart="57621.59999999999" from="25149219#1" to="-653473569#5" /><trip id="7" type="default_017" depart="57625.19999999999" from="201963537#1" to="104012170" /><trip id="8" type="default_017" depart="57628.79999999999" from="653473569#5" to="104012170" /><trip id="9" type="default_017" depart="57632.39999999999" from="104010354" to="124812857#0" /><trip id="10" type="default_016" depart="57635.999999999985" from="104010354" to="-653473569#5" /><trip id="11" type="default_016" depart="57639.599999999984" from="25149219#1" to="104012170" /><trip id="12" type="default_017" depart="57643.19999999998" from="201963537#1" to="104012170" /><trip id="13" type="default_017" depart="57646.79999999998" from="25149219#1" to="-653473569#5" /><trip id="14" type="default_017" depart="57650.39999999998" from="25149219#1" to="-653473569#5" /><trip id="15" type="default_017" depart="57653.99999999998" from="653473569#5" to="104012170" /><trip id="16" type="default_017" depart="57657.59999999998" from="653473569#5" to="124812857#0" /><trip id="17" type="default_016" depart="57661.199999999975" from="201963537#1" to="-653473569#5" /><trip id="18" type="default_016" depart="57664.799999999974" from="201963537#1" to="104012170" /><trip id="19" type="random_016" depart="57668.39999999997" from="653473569#5" to="124812857#0" /><trip id="20" type="default_016" depart="57671.99999999997" from="201963537#1" to="-653473569#5" /><trip id="21" type="default_016" depart="57675.59999999997" from="104010354" to="124812857#0" /><trip id="22" type="default_017" depart="57679.19999999997" from="653473569#5" to="104012170" /><trip id="23" type="random_016" depart="57682.79999999997" from="201963537#1" to="-653473569#5" /><trip id="24" type="random_017" depart="57686.399999999965" from="104010354" to="124812857#0" /><trip id="25" type="default_017" depart="57689.99999999996" from="104010354" to="124812857#0" /><trip id="26" type="default_017" depart="57693.59999999996" from="653473569#5" to="124812857#0" /><trip id="27" type="default_017" depart="57697.19999999996" from="201963537#1" to="-653473569#5" /><trip id="28" type="default_017" depart="57700.79999999996" from="104010354" to="124812857#0" /><trip id="29" type="default_017" depart="57704.39999999996" from="104010354" to="124812857#0" /><trip id="30" type="default_016" depart="57707.999999999956" from="201963537#1" to="104012170" /><trip id="31" type="default_016" depart="57711.599999999955" from="104010354" to="124812857#0" /><trip id="32" type="default_016" depart="57715.19999999995" from="104010354" to="124812857#0" /><trip id="33" type="default_017" depart="57718.79999999995" from="104010354" to="124812857#0" /><trip id="34" type="default_016" depart="57722.39999999995" from="201963537#1" to="-653473569#5" /><trip id="35" type="default_016" depart="57725.99999999995" from="104010354" to="-653473569#5" /><trip id="36" type="default_016" depart="57729.59999999995" from="653473569#5" to="104012170" /><trip id="37" type="default_017" depart="57733.199999999946" from="653473569#5" to="124812857#0" /><trip id="38" type="random_017" depart="57736.799999999945" from="104010354" to="124812857#0" /><trip id="39" type="default_017" depart="57740.39999999994" from="653473569#5" to="104012170" /><trip id="40" type="default_017" depart="57743.99999999994" from="653473569#5" to="104012170" /><trip id="41" type="default_017" depart="57747.59999999994" from="201963537#1" to="-653473569#5" /><trip id="42" type="default_015" depart="57751.19999999994" from="201963537#1" to="104012170" /><trip id="43" type="default_016" depart="57754.79999999994" from="201963537#1" to="-653473569#5" /><trip id="44" type="default_016" depart="57758.399999999936" from="653473569#5" to="124812857#0" /><trip id="45" type="default_016" depart="57761.999999999935" from="653473569#5" to="124812857#0" /><trip id="46" type="default_017" depart="57765.59999999993" from="104010354" to="124812857#0" /><trip id="47" type="default_016" depart="57769.19999999993" from="201963537#1" to="104012170" /><trip id="48" type="default_017" depart="57772.79999999993" from="104010354" to="124812857#0" /><trip id="49" type="default_016" depart="57776.39999999993" from="104010354" to="-653473569#5" /><trip id="50" type="default_016" depart="57779.99999999993" from="201963537#1" to="104012170" /><trip id="51" type="default_016" depart="57783.599999999926" from="25149219#1" to="-653473569#5" /><trip id="52" type="default_016" depart="57787.199999999924" from="25149219#1" to="-653473569#5" /><trip id="53" type="default_017" depart="57790.79999999992" from="201963537#1" to="104012170" /><trip id="54" type="default_017" depart="57794.39999999992" from="201963537#1" to="-653473569#5" /><trip id="55" type="default_017" depart="57797.99999999992" from="104010354" to="124812857#0" /><trip id="56" type="default_017" depart="57801.59999999992" from="653473569#5" to="124812857#0" /><trip id="57" type="default_017" depart="57805.19999999992" from="201963537#1" to="-653473569#5" /><trip id="58" type="default_017" depart="57808.799999999916" from="653473569#5" to="124812857#0" /><trip id="59" type="default_016" depart="57812.399999999914" from="104010354" to="124812857#0" /><trip id="60" type="default_017" depart="57815.99999999991" from="104010354" to="124812857#0" /><trip id="61" type="default_016" depart="57819.59999999991" from="201963537#1" to="-653473569#5" /><trip id="62" type="default_017" depart="57823.19999999991" from="201963537#1" to="104012170" /><trip id="63" type="default_017" depart="57826.79999999991" from="653473569#5" to="124812857#0" /><trip id="64" type="default_016" depart="57830.39999999991" from="653473569#5" to="124812857#0" /><trip id="65" type="default_017" depart="57833.999999999905" from="104010354" to="124812857#0" /><trip id="66" type="default_017" depart="57837.599999999904" from="104010354" to="124812857#0" /><trip id="67" type="default_017" depart="57841.1999999999" from="25149219#1" to="-653473569#5" /><trip id="68" type="default_017" depart="57844.7999999999" from="653473569#5" to="104012170" /><trip id="69" type="default_017" depart="57848.3999999999" from="201963537#1" to="104012170" /><trip id="70" type="default_016" depart="57851.9999999999" from="201963537#1" to="104012170" /><trip id="71" type="default_017" depart="57855.5999999999" from="104010354" to="124812857#0" /><trip id="72" type="default_017" depart="57859.199999999895" from="653473569#5" to="124812857#0" /><trip id="73" type="random_017" depart="57862.799999999894" from="201963537#1" to="-653473569#5" /><trip id="74" type="default_016" depart="57866.39999999989" from="104010354" to="-653473569#5" /><trip id="75" type="default_016" depart="57869.99999999989" from="104010354" to="124812857#0" /><trip id="76" type="default_017" depart="57873.59999999989" from="104010354" to="124812857#0" /><trip id="77" type="default_016" depart="57877.19999999989" from="201963537#1" to="104012170" /><trip id="78" type="default_017" depart="57880.79999999989" from="104010354" to="124812857#0" /><trip id="79" type="default_016" depart="57884.399999999885" from="104010354" to="124812857#0" /><trip id="80" type="default_017" depart="57887.99999999988" from="104010354" to="124812857#0" /><trip id="81" type="default_016" depart="57891.59999999988" from="25149219#1" to="-653473569#5" /><trip id="82" type="default_016" depart="57895.19999999988" from="201963537#1" to="104012170" /><trip id="83" type="default_016" depart="57898.79999999988" from="653473569#5" to="124812857#0" /><trip id="84" type="default_017" depart="57902.39999999988" from="104010354" to="124812857#0" /><trip id="85" type="default_017" depart="57905.999999999876" from="25149219#1" to="104012170" /><trip id="86" type="default_017" depart="57909.599999999875" from="104010354" to="124812857#0" /><trip id="87" type="default_016" depart="57913.19999999987" from="25149219#1" to="-653473569#5" /><trip id="88" type="default_017" depart="57916.79999999987" from="653473569#5" to="104012170" /><trip id="89" type="default_017" depart="57920.39999999987" from="201963537#1" to="104012170" /><trip id="90" type="default_017" depart="57923.99999999987" from="201963537#1" to="104012170" /><trip id="91" type="default_017" depart="57927.59999999987" from="653473569#5" to="124812857#0" /><trip id="92" type="default_017" depart="57931.199999999866" from="25149219#1" to="104012170" /><trip id="93" type="default_016" depart="57934.799999999865" from="201963537#1" to="104012170" /><trip id="94" type="default_016" depart="57938.39999999986" from="25149219#1" to="-653473569#5" /><trip id="95" type="random_017" depart="57941.99999999986" from="201963537#1" to="104012170" /><trip id="96" type="default_016" depart="57945.59999999986" from="653473569#5" to="124812857#0" /><trip id="97" type="default_016" depart="57949.19999999986" from="104010354" to="124812857#0" /><trip id="98" type="default_016" depart="57952.79999999986" from="201963537#1" to="104012170" /><trip id="99" type="default_017" depart="57956.399999999856" from="25149219#1" to="-653473569#5" /><trip id="100" type="default_017" depart="57959.999999999854" from="653473569#5" to="104012170" /><trip id="101" type="default_016" depart="57963.59999999985" from="25149219#1" to="104012170" /><trip id="102" type="default_016" depart="57967.19999999985" from="104010354" to="124812857#0" /><trip id="103" type="default_017" depart="57970.79999999985" from="201963537#1" to="104012170" /><trip id="104" type="default_016" depart="57974.39999999985" from="653473569#5" to="104012170" /><trip id="105" type="default_016" depart="57977.99999999985" from="201963537#1" to="-653473569#5" /><trip id="106" type="default_016" depart="57981.599999999846" from="201963537#1" to="104012170" /><trip id="107" type="default_017" depart="57985.199999999844" from="201963537#1" to="104012170" /><trip id="108" type="default_016" depart="57988.79999999984" from="201963537#1" to="-653473569#5" /><trip id="109" type="default_017" depart="57992.39999999984" from="201963537#1" to="104012170" /><trip id="110" type="random_017" depart="57995.99999999984" from="653473569#5" to="124812857#0" /><trip id="111" type="default_017" depart="57999.59999999984" from="104010354" to="124812857#0" /><trip id="112" type="default_017" depart="58003.19999999984" from="201963537#1" to="104012170" /><trip id="113" type="random_017" depart="58006.799999999836" from="104010354" to="124812857#0" /><trip id="114" type="default_017" depart="58010.399999999834" from="104010354" to="-653473569#5" /><trip id="115" type="default_016" depart="58013.99999999983" from="25149219#1" to="-653473569#5" /><trip id="116" type="default_016" depart="58017.59999999983" from="201963537#1" to="-653473569#5" /><trip id="117" type="default_017" depart="58021.19999999983" from="104010354" to="124812857#0" /><trip id="118" type="default_017" depart="58024.79999999983" from="201963537#1" to="-653473569#5" /><trip id="119" type="default_016" depart="58028.39999999983" from="25149219#1" to="-653473569#5" /><trip id="120" type="default_017" depart="58031.999999999825" from="653473569#5" to="124812857#0" /><trip id="121" type="default_016" depart="58035.599999999824" from="201963537#1" to="-653473569#5" /><trip id="122" type="default_017" depart="58039.19999999982" from="653473569#5" to="124812857#0" /><trip id="123" type="default_017" depart="58042.79999999982" from="653473569#5" to="124812857#0" /><trip id="124" type="default_017" depart="58046.39999999982" from="653473569#5" to="124812857#0" /><trip id="125" type="default_017" depart="58049.99999999982" from="201963537#1" to="-653473569#5" /><trip id="126" type="default_016" depart="58053.59999999982" from="201963537#1" to="-653473569#5" /><trip id="127" type="default_017" depart="58057.199999999815" from="653473569#5" to="124812857#0" /><trip id="128" type="default_016" depart="58060.799999999814" from="653473569#5" to="104012170" /><trip id="129" type="default_017" depart="58064.39999999981" from="201963537#1" to="104012170" /><trip id="130" type="random_017" depart="58067.99999999981" from="201963537#1" to="104012170" /><trip id="131" type="default_016" depart="58071.59999999981" from="201963537#1" to="104012170" /><trip id="132" type="default_017" depart="58075.19999999981" from="201963537#1" to="-653473569#5" /><trip id="133" type="default_015" depart="58078.79999999981" from="201963537#1" to="104012170" /><trip id="134" type="default_016" depart="58082.399999999805" from="201963537#1" to="-653473569#5" /><trip id="135" type="default_017" depart="58085.9999999998" from="653473569#5" to="124812857#0" /><trip id="136" type="default_017" depart="58089.5999999998" from="25149219#1" to="-653473569#5" /><trip id="137" type="default_017" depart="58093.1999999998" from="201963537#1" to="104012170" /><trip id="138" type="default_016" depart="58096.7999999998" from="25149219#1" to="-653473569#5" /><trip id="139" type="default_017" depart="58100.3999999998" from="104010354" to="124812857#0" /><trip id="140" type="default_017" depart="58103.999999999796" from="201963537#1" to="-653473569#5" /><trip id="141" type="default_016" depart="58107.599999999795" from="201963537#1" to="104012170" /><trip id="142" type="default_017" depart="58111.19999999979" from="653473569#5" to="124812857#0" /><trip id="143" type="default_017" depart="58114.79999999979" from="653473569#5" to="124812857#0" /><trip id="144" type="default_017" depart="58118.39999999979" from="104010354" to="124812857#0" /><trip id="145" type="default_016" depart="58121.99999999979" from="653473569#5" to="124812857#0" /><trip id="146" type="default_016" depart="58125.59999999979" from="653473569#5" to="124812857#0" /><trip id="147" type="default_016" depart="58129.199999999786" from="104010354" to="124812857#0" /><trip id="148" type="default_017" depart="58132.799999999785" from="653473569#5" to="104012170" /><trip id="149" type="default_016" depart="58136.39999999978" from="201963537#1" to="-653473569#5" /><trip id="150" type="default_017" depart="58139.99999999978" from="104010354" to="-653473569#5" /><trip id="151" type="default_017" depart="58143.59999999978" from="104010354" to="124812857#0" /><trip id="152" type="default_017" depart="58147.19999999978" from="201963537#1" to="-653473569#5" /><trip id="153" type="default_017" depart="58150.79999999978" from="25149219#1" to="104012170" /><trip id="154" type="default_017" depart="58154.399999999776" from="25149219#1" to="104012170" /><trip id="155" type="default_017" depart="58157.999999999774" from="104010354" to="124812857#0" /><trip id="156" type="default_017" depart="58161.59999999977" from="104010354" to="124812857#0" /><trip id="157" type="default_017" depart="58165.19999999977" from="104010354" to="124812857#0" /><trip id="158" type="random_016" depart="58168.79999999977" from="201963537#1" to="104012170" /><trip id="159" type="default_017" depart="58172.39999999977" from="104010354" to="124812857#0" /><trip id="160" type="default_017" depart="58175.99999999977" from="653473569#5" to="124812857#0" /><trip id="161" type="default_017" depart="58179.599999999766" from="104010354" to="124812857#0" /><trip id="162" type="default_016" depart="58183.199999999764" from="104010354" to="124812857#0" /><trip id="163" type="default_016" depart="58186.79999999976" from="104010354" to="124812857#0" /><trip id="164" type="default_017" depart="58190.39999999976" from="201963537#1" to="-653473569#5" /><trip id="165" type="default_016" depart="58193.99999999976" from="653473569#5" to="104012170" /><trip id="166" type="default_016" depart="58197.59999999976" from="104010354" to="124812857#0" /><trip id="167" type="default_016" depart="58201.19999999976" from="653473569#5" to="104012170" /><trip id="168" type="default_017" depart="58204.799999999756" from="104010354" to="124812857#0" /><trip id="169" type="default_017" depart="58208.399999999754" from="104010354" to="124812857#0" /><trip id="170" type="default_017" depart="58211.99999999975" from="201963537#1" to="-653473569#5" /><trip id="171" type="default_017" depart="58215.59999999975" from="653473569#5" to="124812857#0" /><trip id="172" type="default_016" depart="58219.19999999975" from="201963537#1" to="-653473569#5" /><trip id="173" type="default_016" depart="58222.79999999975" from="25149219#1" to="-653473569#5" /><trip id="174" type="default_017" depart="58226.39999999975" from="201963537#1" to="-653473569#5" /><trip id="175" type="default_017" depart="58229.999999999745" from="25149219#1" to="-653473569#5" /><trip id="176" type="default_017" depart="58233.599999999744" from="104010354" to="124812857#0" /><trip id="177" type="default_017" depart="58237.19999999974" from="653473569#5" to="104012170" /><trip id="178" type="default_017" depart="58240.79999999974" from="25149219#1" to="104012170" /><trip id="179" type="random_016" depart="58244.39999999974" from="104010354" to="124812857#0" /><trip id="180" type="default_017" depart="58247.99999999974" from="201963537#1" to="-653473569#5" /><trip id="181" type="default_016" depart="58251.59999999974" from="25149219#1" to="-653473569#5" /><trip id="182" type="default_017" depart="58255.199999999735" from="653473569#5" to="124812857#0" /><trip id="183" type="default_017" depart="58258.799999999734" from="653473569#5" to="124812857#0" /><trip id="184" type="default_017" depart="58262.39999999973" from="201963537#1" to="104012170" /><trip id="185" type="default_016" depart="58265.99999999973" from="104010354" to="-653473569#5" /><trip id="186" type="default_016" depart="58269.59999999973" from="201963537#1" to="104012170" /><trip id="187" type="default_017" depart="58273.19999999973" from="104010354" to="124812857#0" /><trip id="188" type="default_016" depart="58276.79999999973" from="104010354" to="124812857#0" /><trip id="189" type="default_017" depart="58280.399999999725" from="653473569#5" to="124812857#0" /><trip id="190" type="random_016" depart="58283.99999999972" from="201963537#1" to="-653473569#5" /><trip id="191" type="default_017" depart="58287.59999999972" from="104010354" to="-653473569#5" /><trip id="192" type="default_017" depart="58291.19999999972" from="653473569#5" to="124812857#0" /><trip id="193" type="default_016" depart="58294.79999999972" from="653473569#5" to="124812857#0" /><trip id="194" type="default_017" depart="58298.39999999972" from="653473569#5" to="124812857#0" /><trip id="195" type="default_016" depart="58301.999999999716" from="653473569#5" to="104012170" /><trip id="196" type="default_016" depart="58305.599999999715" from="201963537#1" to="104012170" /><trip id="197" type="default_017" depart="58309.19999999971" from="201963537#1" to="104012170" /><trip id="198" type="default_016" depart="58312.79999999971" from="653473569#5" to="124812857#0" /><trip id="199" type="default_016" depart="58316.39999999971" from="653473569#5" to="124812857#0" /><trip id="200" type="default_017" depart="58319.99999999971" from="104010354" to="124812857#0" /><trip id="201" type="default_016" depart="58323.59999999971" from="201963537#1" to="-653473569#5" /><trip id="202" type="default_017" depart="58327.199999999706" from="653473569#5" to="104012170" /><trip id="203" type="default_017" depart="58330.799999999705" from="201963537#1" to="104012170" /><trip id="204" type="default_016" depart="58334.3999999997" from="201963537#1" to="-653473569#5" /><trip id="205" type="default_016" depart="58337.9999999997" from="201963537#1" to="104012170" /><trip id="206" type="default_016" depart="58341.5999999997" from="201963537#1" to="104012170" /><trip id="207" type="default_017" depart="58345.1999999997" from="104010354" to="124812857#0" /><trip id="208" type="default_017" depart="58348.7999999997" from="104010354" to="124812857#0" /><trip id="209" type="default_017" depart="58352.399999999696" from="104010354" to="124812857#0" /><trip id="210" type="random_016" depart="58355.999999999694" from="201963537#1" to="104012170" /><trip id="211" type="default_017" depart="58359.59999999969" from="104010354" to="124812857#0" /><trip id="212" type="default_017" depart="58363.19999999969" from="653473569#5" to="124812857#0" /><trip id="213" type="default_017" depart="58366.79999999969" from="201963537#1" to="104012170" /><trip id="214" type="default_017" depart="58370.39999999969" from="104010354" to="-653473569#5" /><trip id="215" type="default_017" depart="58373.99999999969" from="201963537#1" to="104012170" /><trip id="216" type="default_016" depart="58377.599999999686" from="201963537#1" to="104012170" /><trip id="217" type="random_017" depart="58381.199999999684" from="104010354" to="124812857#0" /><trip id="218" type="random_017" depart="58384.79999999968" from="653473569#5" to="124812857#0" /><trip id="219" type="default_017" depart="58388.39999999968" from="653473569#5" to="104012170" /><trip id="220" type="random_017" depart="58391.99999999968" from="653473569#5" to="124812857#0" /><trip id="221" type="default_016" depart="58395.59999999968" from="104010354" to="-653473569#5" /><trip id="222" type="default_016" depart="58399.19999999968" from="25149219#1" to="-653473569#5" /><trip id="223" type="default_017" depart="58402.799999999675" from="201963537#1" to="104012170" /><trip id="224" type="random_017" depart="58406.399999999674" from="104010354" to="124812857#0" /><trip id="225" type="default_016" depart="58409.99999999967" from="25149219#1" to="-653473569#5" /><trip id="226" type="default_017" depart="58413.59999999967" from="653473569#5" to="124812857#0" /><trip id="227" type="default_017" depart="58417.19999999967" from="104010354" to="124812857#0" /><trip id="228" type="default_016" depart="58420.79999999967" from="25149219#1" to="-653473569#5" /><trip id="229" type="random_017" depart="58424.39999999967" from="201963537#1" to="104012170" /><trip id="230" type="random_016" depart="58427.999999999665" from="25149219#1" to="-653473569#5" /><trip id="231" type="default_017" depart="58431.599999999664" from="104010354" to="124812857#0" /><trip id="232" type="default_016" depart="58435.19999999966" from="104010354" to="124812857#0" /><trip id="233" type="default_016" depart="58438.79999999966" from="25149219#1" to="-653473569#5" /><trip id="234" type="default_017" depart="58442.39999999966" from="653473569#5" to="124812857#0" /><trip id="235" type="random_016" depart="58445.99999999966" from="201963537#1" to="104012170" /><trip id="236" type="default_016" depart="58449.59999999966" from="201963537#1" to="104012170" /><trip id="237" type="default_016" depart="58453.199999999655" from="104010354" to="-653473569#5" /><trip id="238" type="default_017" depart="58456.799999999654" from="201963537#1" to="-653473569#5" /><trip id="239" type="default_017" depart="58460.39999999965" from="653473569#5" to="124812857#0" /><trip id="240" type="default_016" depart="58463.99999999965" from="653473569#5" to="104012170" /><trip id="241" type="default_017" depart="58467.59999999965" from="104010354" to="124812857#0" /><trip id="242" type="default_017" depart="58471.19999999965" from="104010354" to="124812857#0" /><trip id="243" type="default_017" depart="58474.79999999965" from="201963537#1" to="104012170" /><trip id="244" type="default_016" depart="58478.399999999645" from="104010354" to="124812857#0" /><trip id="245" type="default_017" depart="58481.99999999964" from="104010354" to="124812857#0" /><trip id="246" type="bus" depart="58485.59999999964" from="25149219#1" to="-653473569#5" /><trip id="247" type="default_016" depart="58489.19999999964" from="653473569#5" to="124812857#0" /><trip id="248" type="default_017" depart="58492.79999999964" from="104010354" to="124812857#0" /><trip id="249" type="default_016" depart="58496.39999999964" from="201963537#1" to="-653473569#5" /><trip id="250" type="default_017" depart="58499.999999999636" from="653473569#5" to="124812857#0" /><trip id="251" type="default_017" depart="58503.599999999635" from="201963537#1" to="104012170" /><trip id="252" type="default_017" depart="58507.19999999963" from="653473569#5" to="104012170" /><trip id="253" type="default_016" depart="58510.79999999963" from="25149219#1" to="104012170" /><trip id="254" type="default_017" depart="58514.39999999963" from="653473569#5" to="124812857#0" /><trip id="255" type="default_016" depart="58517.99999999963" from="104010354" to="124812857#0" /><trip id="256" type="default_016" depart="58521.59999999963" from="653473569#5" to="124812857#0" /><trip id="257" type="default_016" depart="58525.199999999626" from="104010354" to="124812857#0" /><trip id="258" type="default_017" depart="58528.799999999625" from="201963537#1" to="-653473569#5" /><trip id="259" type="default_016" depart="58532.39999999962" from="653473569#5" to="124812857#0" /><trip id="260" type="random_016" depart="58535.99999999962" from="104010354" to="124812857#0" /><trip id="261" type="default_017" depart="58539.59999999962" from="653473569#5" to="104012170" /><trip id="262" type="default_017" depart="58543.19999999962" from="653473569#5" to="124812857#0" /><trip id="263" type="default_016" depart="58546.79999999962" from="201963537#1" to="-653473569#5" /><trip id="264" type="default_017" depart="58550.399999999616" from="104010354" to="124812857#0" /><trip id="265" type="default_017" depart="58553.999999999614" from="201963537#1" to="104012170" /><trip id="266" type="default_017" depart="58557.59999999961" from="653473569#5" to="104012170" /><trip id="267" type="default_017" depart="58561.19999999961" from="653473569#5" to="124812857#0" /><trip id="268" type="default_017" depart="58564.79999999961" from="25149219#1" to="104012170" /><trip id="269" type="default_016" depart="58568.39999999961" from="653473569#5" to="124812857#0" /><trip id="270" type="default_017" depart="58571.99999999961" from="653473569#5" to="124812857#0" /><trip id="271" type="default_016" depart="58575.599999999606" from="25149219#1" to="-653473569#5" /><trip id="272" type="default_017" depart="58579.199999999604" from="104010354" to="124812857#0" /><trip id="273" type="default_016" depart="58582.7999999996" from="104010354" to="-653473569#5" /><trip id="274" type="default_017" depart="58586.3999999996" from="104010354" to="124812857#0" /><trip id="275" type="default_016" depart="58589.9999999996" from="653473569#5" to="124812857#0" /><trip id="276" type="default_017" depart="58593.5999999996" from="104010354" to="124812857#0" /><trip id="277" type="default_016" depart="58597.1999999996" from="201963537#1" to="104012170" /><trip id="278" type="default_017" depart="