<routes xmlns:xsi="http://www.w3.org/2001/XMLSchema-instance" xsi:noNamespaceSchemaLocation="http://sumo.dlr.de/xsd/routes_file.xsd">
	<vType id="pkw" vClass="passenger" speedDev="0.1" length="4.3" minGap="1.5" />
<vehicle id="0" type="pkw" depart="25200"><route edges="319261593#12 319261593#15 319261593#16 4145590#0" /></vehicle><vehicle id="1" type="pkw" depart="25200.801068090786"><route edges="31864804 200818108#0 4999331#0" /></vehicle><vehicle id="2" type="pkw" depart="25201.602136181573"><route edges="31864804 200818108#0 4999331#0" /></vehicle><vehicle id="3" type="pkw" depart="25202.40320427236"><route edges="31864804 200818108#0 4999331#0" /></vehicle><vehicle id="4" type="pkw" depart="25203.204272363146"><route edges="319261593#12 319261593#15 319261593#16 4145590#0" /></vehicle><vehicle id="5" type="pkw" depart="25204.005340453932"><route edges="241660957#0 4999331#0" /></vehicle><vehicle id="6" type="pkw" depart="25204.80640854472"><route edges="-130160207#0 -241660955#16 -241660955#13 -41910184" /></vehicle><vehicle id="7" type="pkw" depart="25205.607476635505"><route edges="31864804 200818108#0 4999331#0" /></vehicle><vehicle id="8" type="pkw" depart="25206.40854472629"><route edges="41910186 -241660955#3 -200818108#1 -31864804" /></vehicle><vehicle id="9" type="pkw" depart="25207.209612817078"><route edges="41910184 241660955#13 241660955#14 241660955#17" /></vehicle><vehicle id="10" type="pkw" depart="25208.010680907864"><route edges="-241660955#17 -241660955#16 -241660955#13 -41910184" /></vehicle><vehicle id="11" type="pkw" depart="25208.81174899865"><route edges="241660957#0 -200818108#1 -31864804" /></vehicle><vehicle id="12" type="pkw" depart="25209.612817089437"><route edges="-5229966#3 319261593#15 319261593#16 4145590#0" /></vehicle><vehicle id="13" type="pkw" depart="25210.413885180224"><route edges="-5229966#3 319261593#15 8197886#0 200818108#0 241660955#0 241660955#4 241660955#6 241660955#7 241660955#10 241660955#11 -241660955#12 -241660955#10 -241660955#9 4045332#0" /></vehicle><vehicle id="14" type="pkw" depart="25211.21495327101"><route edges="241660957#0 4999331#0" /></vehicle><vehicle id="15" type="pkw" depart="25212.016021361796"><route edges="-241660955#12 -241660955#10 -4045329#5" /></vehicle><vehicle id="16" type="pkw" depart="25212.817089452583"><route edges="-5229966#3 319261593#15 319261593#16 4145590#0" /></vehicle><vehicle id="17" type="pkw" depart="25213.61815754337"><route edges="-31800061#0 -241660955#3 4145590#0" /></vehicle><vehicle id="18" type="pkw" depart="25214.419225634156"><route edges="-241660955#17 -241660955#16 -241660955#13 -241660955#12 -241660955#10 -241660955#9 -241660955#6 -4999334" /></vehicle><vehicle id="19" type="pkw" depart="25215.220293724942"><route edges="41910184 241660955#13 241660955#14 241660955#17" /></vehicle><vehicle id="20" type="pkw" depart="25216.02136181573"><route edges="241660957#0 4999331#0" /></vehicle><vehicle id="21" type="pkw" depart="25216.822429906515"><route edges="241660957#0 4999331#0" /></vehicle><vehicle id="22" type="pkw" depart="25217.6234979973"><route edges="41910184 -241660955#12 -241660955#10 241660955#10 241660955#11 241660955#13 241660955#14 241660955#17" /></vehicle><vehicle id="23" type="pkw" depart="25218.424566088088"><route edges="319261593#12 319261593#15 319261593#16 4145590#0" /></vehicle><vehicle id="24" type="pkw" depart="25219.225634178874"><route edges="-41910185#2 -4045329#5" /></vehicle><vehicle id="25" type="pkw" depart="25220.02670226966"><route edges="241660955#13 241660955#14 241660955#17" /></vehicle><vehicle id="26" type="pkw" depart="25220.827770360447"><route edges="-130160207#0 -241660955#16 -241660955#13 -41910184" /></vehicle><vehicle id="27" type="pkw" depart="25221.628838451234"><route edges="-130160207#0 241660955#17" /></vehicle><vehicle id="28" type="pkw" depart="25222.42990654202"><route edges="-130160207#0 241660955#17" /></vehicle><vehicle id="29" type="pkw" depart="25223.230974632806"><route edges="319261593#12 319261593#15 319261593#16 4999331#0" /></vehicle><vehicle id="30" type="pkw" depart="25224.032042723593"><route edges="-130160207#0 -241660955#16 -241660955#13 -41910184" /></vehicle><vehicle id="31" type="pkw" depart="25224.83311081438"><route edges="-41910185#2 -4045329#5" /></vehicle><vehicle id="32" type="pkw" depart="25225.634178905166"><route edges="31864804 200818108#0 241660955#0 241660955#4 241660955#6 241660955#7 241660955#10 241660955#11 241660955#13 241660955#14 241660955#17" /></vehicle><vehicle id="33" type="pkw" depart="25226.435246995952"><route edges="241660957#0 4999331#0" /></vehicle><vehicle id="34" type="pkw" depart="25227.23631508674"><route edges="4999334 -241660955#5 -241660955#3 -200818108#1 -31864804" /></vehicle><vehicle id="35" type="pkw" depart="25228.037383177525"><route edges="241660957#0 4999331#0" /></vehicle><vehicle id="36" type="pkw" depart="25228.83845126831"><route edges="41910186 -241660955#3 -200818108#1 -31864804" /></vehicle><vehicle id="37" type="pkw" depart="25229.639519359098"><route edges="41910186 -241660955#3 4145590#0" /></vehicle><vehicle id="38" type="pkw" depart="25230.440587449884"><route edges="241660957#0 241660955#0 241660955#4 241660955#6 241660955#7 241660955#10 241660955#11 241660955#13 241660955#14 241660955#17" /></vehicle><vehicle id="39" type="pkw" depart="25231.24165554067"><route edges="31864804 200818108#0 4145590#0" /></vehicle><vehicle id="40" type="pkw" depart="25232.042723631457"><route edges="31864804 200818108#0 241660955#0 241660955#4 241660955#6 241660955#7 241660955#10 241660955#11 241660955#13 241660955#14 241660955#17" /></vehicle><vehicle id="41" type="pkw" depart="25232.843791722244"><route edges="241660955#6 241660955#7 241660955#10 241660955#11 241660955#13 241660955#14 241660955#17" /></vehicle><vehicle id="42" type="pkw" depart="25233.64485981303"><route edges="241660957#0 4999331#0" /></vehicle><vehicle id="43" type="pkw" depart="25234.445927903816"><route edges="-5229966#3 319261593#15 319261593#16 4145590#0" /></vehicle><vehicle id="44" type="pkw" depart="25235.246995994603"><route edges="319261593#12 319261593#15 8197886#0 -31864804" /></vehicle><vehicle id="45" type="pkw" depart="25236.04806408539"><route edges="319261593#12 319261593#15 319261593#16 -200818108#1 -31864804" /></vehicle><vehicle id="46" type="pkw" depart="25236.849132176176"><route edges="-130160207#0 -241660955#16 -241660955#13 -41910184" /></vehicle><vehicle id="47" type="pkw" depart="25237.650200266962"><route edges="-241660955#17 -241660955#16 -241660955#13 -41910184" /></vehicle><vehicle id="48" type="pkw" depart="25238.45126835775"><route edges="-241660955#17 130160207#0" /></vehicle><vehicle id="49" type="pkw" depart="25239.252336448535"><route edges="4045329#5 241660955#10 -4045330" /></vehicle><vehicle id="50" type="pkw" depart="25240.05340453932"><route edges="31864804 200818108#0 241660955#0 241660955#4 241660955#6 241660955#7 241660955#10 241660955#11 241660955#13 241660955#14 241660955#17" /></vehicle><vehicle id="51" type="pkw" depart="25240.854472630108"><route edges="-41910185#2 -4045329#5" /></vehicle><vehicle id="52" type="pkw" depart="25241.655540720894"><route edges="241660957#0 4999331#0" /></vehicle><vehicle id="53" type="pkw" depart="25242.45660881168"><route edges="-130160207#0 -241660955#16 -241660955#13 -41910184" /></vehicle><vehicle id="54" type="pkw" depart="25243.257676902467"><route edges="-41910185#2 241660955#10 241660955#11 241660955#13 241660955#14 241660955#17" /></vehicle><vehicle id="55" type="pkw" depart="25244.058744993254"><route edges="4999334 -241660955#5 -241660955#3 -200818108#1 -31864804" /></vehicle><vehicle id="56" type="pkw" depart="25244.85981308404"><route edges="41910184 241660955#13 241660955#14 130160207#0" /></vehicle><vehicle id="57" type="pkw" depart="25245.660881174826"><route edges="-241660955#17 -241660955#16 -241660955#13 -241660955#12 -241660955#10 -241660955#9 -241660955#6 -241660955#5 -241660955#3 -200818108#1 -31864804" /></vehicle><vehicle id="58" type="pkw" depart="25246.461949265613"><route edges="31864804 200818108#0 4999331#0" /></vehicle><vehicle id="59" type="pkw" depart="25247.2630173564"><route edges="-41910185#2 241660955#10 241660955#11 241660955#13 241660955#14 241660955#17" /></vehicle><vehicle id="60" type="pkw" depart="25248.064085447186"><route edges="-5229966#3 319261593#15 319261593#16 4145590#0" /></vehicle><vehicle id="61" type="pkw" depart="25248.865153537972"><route edges="4999334 -241660955#5 -241660955#3 -200818108#1 -31864804" /></vehicle><vehicle id="62" type="pkw" depart="25249.66622162876"><route edges="241660957#0 4999331#0" /></vehicle><vehicle id="63" type="pkw" depart="25250.467289719545"><route edges="319261593#12" /></vehicle><vehicle id="64" type="pkw" depart="25251.26835781033"><route edges="31864804 200818108#0 241660955#0 241660955#4 241660955#6 241660955#7 241660955#10 241660955#11 241660955#13 241660955#14 241660955#17" /></vehicle><vehicle id="65" type="pkw" depart="25252.069425901118"><route edges="-241660955#17 -241660955#16 -241660955#13 -241660955#12 -241660955#10 -241660955#9 -241660955#6 -241660955#5 -241660955#3 -200818108#1 -31864804" /></vehicle><vehicle id="66" type="pkw" depart="25252.870493991904"><route edges="-41910185#2 -4045329#5" /></vehicle><vehicle id="67" type="pkw" depart="25253.67156208269"><route edges="-5229966#3 319261593#15 319261593#16 4145590#0" /></vehicle><vehicle id="68" type="pkw" depart="25254.472630173477"><route edges="-130160207#0 -241660955#16 -241660955#13 -41910184" /></vehicle><vehicle id="69" type="pkw" depart="25255.273698264264"><route edges="319261593#12 319261593#15 319261593#16 -200818108#1 -31864804" /></vehicle><vehicle id="70" type="pkw" depart="25256.07476635505"><route edges="41910186 31800061#0" /></vehicle><vehicle id="71" type="pkw" depart="25256.875834445837"><route edges="241660957#0 4999331#0" /></vehicle><vehicle id="72" type="pkw" depart="25257.676902536623"><route edges="-130160207#0 241660955#17 -241660955#17 -241660955#16 -241660955#13 -41910184" /></vehicle><vehicle id="73" type="pkw" depart="25258.47797062741"><route edges="4999334 -241660955#5 -241660955#3 4145590#0" /></vehicle><vehicle id="74" type="pkw" depart="25259.279038718196"><route edges="-31800061#0 -41910186" /></vehicle><vehicle id="75" type="pkw" depart="25260.080106808982"><route edges="319261593#12 319261593#15 8197886#0 200818108#0 4145590#0" /></vehicle><vehicle id="76" type="pkw" depart="25260.88117489977"><route edges="4999334 -241660955#5 -241660955#3 4145590#0" /></vehicle><vehicle id="77" type="pkw" depart="25261.682242990555"><route edges="241660957#0 4999331#0" /></vehicle><vehicle id="78" type="pkw" depart="25262.48331108134"><route edges="-241660955#17 -241660955#16 -241660955#13 -241660955#12 -241660955#10 -241660955#9 -241660955#6 -241660955#5 -241660955#3 -200818108#1 -31864804" /></vehicle><vehicle id="79" type="pkw" depart="25263.284379172128"><route edges="-241660955#17 -241660955#16 -241660955#13 -41910184" /></vehicle><vehicle id="80" type="pkw" depart="25264.085447262914"><route edges="4045329#5 -241660955#9 4045332#0" /></vehicle><vehicle id="81" type="pkw" depart="25264.8865153537"><route edges="319261593#12 319261593#15 319261593#16 4145590#0" /></vehicle><vehicle id="82" type="pkw" depart="25265.687583444487"><route edges="319261593#12 319261593#15 8197886#0 200818108#0 241660955#0 241660955#4 241660955#6 241660955#7 241660955#10 241660955#11 241660955#13 241660955#14 241660955#17" /></vehicle><vehicle id="83" type="pkw" depart="25266.488651535274"><route edges="241660957#0 4999331#0" /></vehicle><vehicle id="84" type="pkw" depart="25267.28971962606"><route edges="41910184 241660955#13 241660955#14 130160207#0" /></vehicle><vehicle id="85" type="pkw" depart="25268.090787716847"><route edges="241660957#0 -200818108#1 -31864804" /></vehicle><vehicle id="86" type="pkw" depart="25268.891855807633"><route edges="31864804 200818108#0 241660955#0 241660955#4 241660955#6 241660955#7 241660955#10 241660955#11 241660955#13 241660955#14 241660955#17" /></vehicle><vehicle id="87" type="pkw" depart="25269.69292389842"><route edges="-41910185#2 241660955#10 241660955#11 241660955#13 241660955#14 241660955#17" /></vehicle><vehicle id="88" type="pkw" depart="25270.493991989206"><route edges="241660957#0 4999331#0" /></vehicle><vehicle id="89" type="pkw" depart="25271.295060079992"><route edges="4045329#5 241660955#10 241660955#11 241660955#13 241660955#14 241660955#17" /></vehicle><vehicle id="90" type="pkw" depart="25272.09612817078"><route edges="31864804 200818108#0 4999331#0" /></vehicle><vehicle id="91" type="pkw" depart="25272.897196261565"><route edges="-241660955#17 -241660955#16 -241660955#13 -41910184" /></vehicle><vehicle id="92" type="pkw" depart="25273.69826435235"><route edges="241660957#0 4999331#0" /></vehicle><vehicle id="93" type="pkw" depart="25274.499332443138"><route edges="4045329#5 41910185#0" /></vehicle><vehicle id="94" type="pkw" depart="25275.300400533924"><route edges="-130160207#0 241660955#17" /></vehicle><vehicle id="95" type="pkw" depart="25276.10146862471"><route edges="-41910185#2 -4045329#5" /></vehicle><vehicle id="96" type="pkw" depart="25276.902536715497"><route edges="241660957#0 4999331#0" /></vehicle><vehicle id="97" type="pkw" depart="25277.703604806284"><route edges="241660957#0 4999331#0" /></vehicle><vehicle id="98" type="pkw" depart="25278.50467289707"><route edges="-31800061#0 -41910186" /></vehicle><vehicle id="99" type="pkw" depart="25279.305740987857"><route edges="319261593#12 319261593#15 319261593#16 241660955#0 241660955#4 241660955#6 241660955#7 241660955#10 241660955#11 241660955#13 241660955#14 241660955#17" /></vehicle><vehicle id="100" type="pkw" depart="25280.106809078643"><route edges="241660957#0 -200818108#1 -31864804" /></vehicle><vehicle id="101" type="pkw" depart="25280.90787716943"><route edges="-241660955#17 -241660955#16 -241660955#13 -41910184" /></vehicle><vehicle id="102" type="pkw" depart="25281.708945260216"><route edges="31864804 200818108#0 241660955#0 241660955#4 241660955#6 241660955#7 241660955#10 241660955#11 241660955#13 241660955#14 241660955#17" /></vehicle><vehicle id="103" type="pkw" depart="25282.510013351002"><route edges="-130160207#0 241660955#17 -241660955#17 241660955#17" /></vehicle><vehicle id="104" type="pkw" depart="25283.31108144179"><route edges="241660957#0 4999331#0" /></vehicle><vehicle id="105" type="pkw" depart="25284.112149532575"><route edges="41910184 241660955#13 4145589#0" /></vehicle><vehicle id="106" type="pkw" depart="25284.91321762336"><route edges="-5229966#3 319261593#15 319261593#16 4145590#0" /></vehicle><vehicle id="107" type="pkw" depart="25285.714285714148"><route edges="241660957#0 241660955#0 -41910186" /></vehicle><vehicle id="108" type="pkw" depart="25286.515353804934"><route edges="-241660955#17 -241660955#16 -241660955#13 -241660955#12 -241660955#10 -241660955#9 -241660955#6 -241660955#5 -241660955#3 -200818108#1 -31864804" /></vehicle><vehicle id="109" type="pkw" depart="25287.31642189572"><route edges="-41910185#2 241660955#10 -241660955#10" /></vehicle><vehicle id="110" type="pkw" depart="25288.117489986507"><route edges="31864804 200818108#0 241660955#0 241660955#4 241660955#6 241660955#7 241660955#10 241660955#11 -41910184" /></vehicle><vehicle id="111" type="pkw" depart="25288.918558077294"><route edges="241660957#0 4999331#0" /></vehicle><vehicle id="112" type="pkw" depart="25289.71962616808"><route edges="41910186 -241660955#3 -200818108#1 -31864804" /></vehicle><vehicle id="113" type="pkw" depart="25290.520694258867"><route edges="31864804 200818108#0 241660955#0 241660955#4 241660955#6 241660955#7 241660955#10 241660955#11 -41910184" /></vehicle><vehicle id="114" type="pkw" depart="25291.321762349653"><route edges="41910186 -241660955#3 4145590#0" /></vehicle><vehicle id="115" type="pkw" depart="25292.12283044044"><route edges="4999334 -241660955#5 31800061#0" /></vehicle><vehicle id="116" type="pkw" depart="25292.923898531226"><route edges="31864804 200818108#0 4999331#0" /></vehicle><vehicle id="117" type="pkw" depart="25293.724966622012"><route edges="241660957#0 241660955#0 -41910186 41910186 -241660955#3 4999331#0" /></vehicle><vehicle id="118" type="pkw" depart="25294.5260347128"><route edges="-41910185#2 -241660955#9 -241660955#6 -241660955#5 -241660955#3 -200818108#1 -31864804" /></vehicle><vehicle id="119" type="pkw" depart="25295.327102803585"><route edges="241660957#0 4999331#0" /></vehicle><vehicle id="120" type="pkw" depart="25296.12817089437"><route edges="319261593#12 319261593#15 319261593#16 4145590#0" /></vehicle><vehicle id="121" type="pkw" depart="25296.929238985158"><route edges="-41910185#2 -4045329#5" /></vehicle><vehicle id="122" type="pkw" depart="25297.730307075944"><route edges="241660957#0 4999331#0" /></vehicle><vehicle id="123" type="pkw" depart="25298.53137516673"><route edges="-130160207#0 241660955#17" /></vehicle><vehicle id="124" type="pkw" depart="25299.332443257517"><route edges="241660955#6 -241660955#6 -241660955#5 -41910186" /></vehicle><vehicle id="125" type="pkw" depart="25300.133511348304"><route edges="-31800061#0 -241660955#3 4145590#0" /></vehicle><vehicle id="126" type="pkw" depart="25300.93457943909"><route edges="241660957#0 4999331#0" /></vehicle><vehicle id="127" type="pkw" depart="25301.735647529877"><route edges="4999334 -241660955#5 -241660955#3 -200818108#1 -31864804" /></vehicle><vehicle id="128" type="pkw" depart="25302.536715620663"><route edges="241660957#0 4999331#0" /></vehicle><vehicle id="129" type="pkw" depart="25303.33778371145"><route edges="31864804 200818108#0 241660955#0 241660955#4 241660955#6 241660955#7 241660955#10 241660955#11 241660955#13 241660955#14 241660955#17" /></vehicle><vehicle id="130" type="pkw" depart="25304.138851802236"><route edges="319261593#12 319261593#15 319261593#16 241660955#0 241660955#4 241660955#6 241660955#7 241660955#10" /></vehicle><vehicle id="131" type="pkw" depart="25304.939919893022"><route edges="-241660955#17 -241660955#16 -241660955#13 -41910184" /></vehicle><vehicle id="132" type="pkw" depart="25305.74098798381"><route edges="241660957#0 241660955#0 -41910186" /></vehicle><vehicle id="133" type="pkw" depart="25306.542056074595"><route edges="-241660955#17 -241660955#16 -241660955#13 -41910184" /></vehicle><vehicle id="134" type="pkw" depart="25307.34312416538"><route edges="41910184 241660955#13 4145589#0" /></vehicle><vehicle id="135" type="pkw" depart="25308.144192256168"><route edges="41910184 241660955#13 241660955#14 241660955#17" /></vehicle><vehicle id="136" type="pkw" depart="25308.945260346954"><route edges="-130160207#0 -241660955#16 -241660955#13 -41910184" /></vehicle><vehicle id="137" type="pkw" depart="25309.74632843774"><route edges="319261593#12 319261593#15 319261593#16 241660955#0 241660955#4 241660955#6 241660955#7 241660955#10 241660955#11 241660955#13 241660955#14 241660955#17" /></vehicle><vehicle id="138" type="pkw" depart="25310.547396528527"><route edges="241660957#0 4999331#0" /></vehicle><vehicle id="139" type="pkw" depart="25311.348464619314"><route edges="-241660955#17 -241660955#16 -241660955#13 -41910184" /></vehicle><vehicle id="140" type="pkw" depart="25312.1495327101"><route edges="41910184 241660955#13 241660955#14 241660955#17" /></vehicle><vehicle id="141" type="pkw" depart="25312.950600800887"><route edges="4999334 241660955#6 4045332#0" /></vehicle><vehicle id="142" type="pkw" depart="25313.751668891673"><route edges="241660957#0 4999331#0" /></vehicle><vehicle id="143" type="pkw" depart="25314.55273698246"><route edges="241660957#0 4999331#0" /></vehicle><vehicle id="144" type="pkw" depart="25315.353805073246"><route edges="-5229966#3 319261593#15 319261593#16 241660955#0 241660955#4 241660955#6 241660955#7 241660955#10 241660955#11 241660955#13 241660955#14 241660955#17" /></vehicle><vehicle id="145" type="pkw" depart="25316.154873164032"><route edges="241660957#0 4999331#0" /></vehicle><vehicle id="146" type="pkw" depart="25316.95594125482"><route edges="-241660955#17 -241660955#16 -241660955#13 -241660955#12 -241660955#10 -241660955#9 -241660955#6 -241660955#5 -241660955#3 -200818108#1 -31864804" /></vehicle><vehicle id="147" type="pkw" depart="25317.757009345605"><route edges="-241660955#17 -241660955#16 -241660955#13 -241660955#12" /></vehicle><vehicle id="148" type="pkw" depart="25318.55807743639"><route edges="31864804 -31864804" /></vehicle><vehicle id="149" type="pkw" depart="25319.359145527178"><route edges="319261593#12 319261593#15 319261593#16 -200818108#1 -31864804" /></vehicle><vehicle id="150" type="pkw" depart="25320.160213617964"><route edges="-241660955#17 -241660955#16 -241660955#13 -241660955#12 -241660955#10 -241660955#9 -241660955#6 -241660955#5 -241660955#3 -200818108#1 -31864804" /></vehicle><vehicle id="151" type="pkw" depart="25320.96128170875"><route edges="241660957#0 4999331#0" /></vehicle><vehicle id="152" type="pkw" depart="25321.762349799537"><route edges="-31800061#0 -41910186" /></vehicle><vehicle id="153" type="pkw" depart="25322.563417890324"><route edges="-130160207#0 -241660955#16 -241660955#13 -241660955#12 -241660955#10 -241660955#9 -241660955#6 -241660955#5 -241660955#3 -200818108#1 -31864804" /></vehicle><vehicle id="154" type="pkw" depart="25323.36448598111"><route edges="31864804 200818108#0 4999331#0" /></vehicle><vehicle id="155" type="pkw" depart="25324.165554071897"><route edges="-5229966#3 319261593#15 8197886#0 200818108#0 4999331#0" /></vehicle><vehicle id="156" type="pkw" depart="25324.966622162683"><route edges="-31800061#0 241660955#4 -4999334" /></vehicle><vehicle id="157" type="pkw" depart="25325.76769025347"><route edges="241660957#0 4999331#0" /></vehicle><vehicle id="158" type="pkw" depart="25326.568758344256"><route edges="-241660955#17 -241660955#16 -241660955#13 -41910184" /></vehicle><vehicle id="159" type="pkw" depart="25327.369826435042"><route edges="31864804 200818108#0 4999331#0" /></vehicle><vehicle id="160" type="pkw" depart="25328.17089452583"><route edges="-31864804 31864804 200818108#0 4145590#0" /></vehicle><vehicle id="161" type="pkw" depart="25328.971962616615"><route edges="-241660955#17 -241660955#16 -241660955#13 -241660955#12 -241660955#10 -241660955#9 -241660955#6 -241660955#5 -241660955#3 -200818108#1 -31864804" /></vehicle><vehicle id="162" type="pkw" depart="25329.7730307074"><route edges="-241660955#17 -241660955#16 -241660955#13 -241660955#12 -241660955#10 -241660955#9 -241660955#6 -241660955#5 -241660955#3 -200818108#1 -31864804" /></vehicle><vehicle id="163" type="pkw" depart="25330.574098798188"><route edges="31864804 200818108#0 4999331#0" /></vehicle><vehicle id="164" type="pkw" depart="25331.375166888974"><route edges="41910184 -241660955#12 -241660955#10 -241660955#9 -241660955#6 -241660955#5 -241660955#3 -200818108#1 -31864804" /></vehicle><vehicle id="165" type="pkw" depart="25332.17623497976"><route edges="-241660955#17 -241660955#16 -241660955#13 -241660955#12 -241660955#10 -241660955#9 -241660955#6 -241660955#5 -241660955#3 -200818108#1 -31864804" /></vehicle><vehicle id="166" type="pkw" depart="25332.977303070547"><route edges="4045329#5 41910185#0" /></vehicle><vehicle id="167" type="pkw" depart="25333.778371161334"><route edges="-5229966#3 319261593#15 319261593#16 4145590#0" /></vehicle><vehicle id="168" type="pkw" depart="25334.57943925212"><route edges="241660957#0 -200818108#1 -31864804" /></vehicle><vehicle id="169" type="pkw" depart="25335.380507342907"><route edges="31864804 200818108#0 241660955#0 -41910186" /></vehicle><vehicle id="170" type="pkw" depart="25336.181575433693"><route edges="241660957#0 4999331#0" /></vehicle><vehicle id="171" type="pkw" depart="25336.98264352448"><route edges="31864804 200818108#0 241660955#0 241660955#4 241660955#6 241660955#7 -241660955#9 -241660955#6 -241660955#5 -241660955#3 4145590#0" /></vehicle><vehicle id="172" type="pkw" depart="25337.783711615266"><route edges="319261593#12 319261593#15 8197886#0 200818108#0 4145590#0" /></vehicle><vehicle id="173" type="pkw" depart="25338.584779706052"><route edges="31864804 200818108#0 241660955#0 241660955#4 241660955#6 241660955#7 241660955#10 -4045330" /></vehicle><vehicle id="174" type="pkw" depart="25339.38584779684"><route edges="241660957#0 4999331#0" /></vehicle><vehicle id="175" type="pkw" depart="25340.186915887625"><route edges="41910184 241660955#13 241660955#14 130160207#0" /></vehicle><vehicle id="176" type="pkw" depart="25340.98798397841"><route edges="4045329#5 -241660955#9 -241660955#6 -241660955#5 -241660955#3 -200818108#1 -31864804" /></vehicle><vehicle id="177" type="pkw" depart="25341.789052069198"><route edges="41910184 241660955#13 241660955#14 -241660955#16 4145589#0" /></vehicle><vehicle id="178" type="pkw" depart="25342.590120159985"><route edges="4999334 -241660955#5 -241660955#3 4145590#0" /></vehicle><vehicle id="179" type="pkw" depart="25343.39118825077"><route edges="-41910185#2 -4045329#5" /></vehicle><vehicle id="180" type="pkw" depart="25344.192256341557"><route edges="241660955#4 -241660955#5 31800061#0" /></vehicle><vehicle id="181" type="pkw" depart="25344.993324432344"><route edges="-41910185#2 -4045329#5" /></vehicle><vehicle id="182" type="pkw" depart="25345.79439252313"><route edges="31864804 200818108#0 241660955#0 241660955#4 241660955#6 241660955#7 241660955#10 241660955#11 241660955#13 241660955#14 241660955#17" /></vehicle><vehicle id="183" type="pkw" depart="25346.595460613917"><route edges="41910184 241660955#13 241660955#14 241660955#17" /></vehicle><vehicle id="184" type="pkw" depart="25347.396528704703"><route edges="41910184 241660955#13 241660955#14 241660955#17" /></vehicle><vehicle id="185" type="pkw" depart="25348.19759679549"><route edges="-241660955#17 -241660955#16 -241660955#13 -241660955#12 -241660955#10 -241660955#9 -241660955#6 -241660955#5 -241660955#3 -200818108#1 -31864804" /></vehicle><vehicle id="186" type="pkw" depart="25348.998664886276"><route edges="241660957#0 4999331#0" /></vehicle><vehicle id="187" type="pkw" depart="25349.799732977062"><route edges="-5229966#3 319261593#15 319261593#16 241660955#0 241660955#4 241660955#6 241660955#7 241660955#10 241660955#11 241660955#13 241660955#14 241660955#17" /></vehicle><vehicle id="188" type="pkw" depart="25350.60080106785"><route edges="319261593#12 319261593#15 8197886#0 -31864804" /></vehicle><vehicle id="189" type="pkw" depart="25351.401869158635"><route edges="-130160207#0 -241660955#16 -241660955#13 -241660955#12 241660955#11" /></vehicle><vehicle id="190" type="pkw" depart="25352.20293724942"><route edges="319261593#12 319261593#15 8197886#0 200818108#0 -200818108#1 -31864804" /></vehicle><vehicle id="191" type="pkw" depart="25353.004005340208"><route edges="31864804 200818108#0 241660955#0 241660955#4 241660955#6 241660955#7 241660955#10 241660955#11 241660955#13 241660955#14 241660955#17" /></vehicle><vehicle id="192" type="pkw" depart="25353.805073430995"><route edges="241660957#0 4999331#0" /></vehicle><vehicle id="193" type="pkw" depart="25354.60614152178"><route edges="41910186 241660955#4 241660955#6 4045332#0" /></vehicle><vehicle id="194" type="pkw" depart="25355.407209612567"><route edges="-31800061#0 -41910186" /></vehicle><vehicle id="195" type="pkw" depart="25356.208277703354"><route edges="241660957#0 4999331#0" /></vehicle><vehicle id="196" type="pkw" depart="25357.00934579414"><route edges="41910184 241660955#13 241660955#14 241660955#17" /></vehicle><vehicle id="197" type="pkw" depart="25357.810413884927"><route edges="-5229966#3 319261593#15 319261593#16 4145590#0" /></vehicle><vehicle id="198" type="pkw" depart="25358.611481975713"><route edges="-5229966#3 319261593#15 319261593#16 4145590#0" /></vehicle><vehicle id="199" type="pkw" depart="25359.4125500665"><route edges="241660957#0 4999331#0" /></vehicle><vehicle id="200" type="pkw" depart="25360.213618157286"><route edges="-241660955#17 -241660955#16 -241660955#13 -41910184" /></vehicle><vehicle id="201" type="pkw" depart="25361.014686248072"><route edges="319261593#12 319261593#15 319261593#16 4999331#0" /></vehicle><vehicle id="202" type="pkw" depart="25361.81575433886"><route edges="319261593#12 319261593#15 319261593#16 -200818108#1 -31864804" /></vehicle><vehicle id="203" type="pkw" depart="25362.616822429645"><route edges="319261593#12 319261593#15 319261593#16 -200818108#1 -31864804" /></vehicle><vehicle id="204" type="pkw" depart="25363.41789052043"><route edges="4045329#5 -241660955#9 -241660955#6 -241660955#5 31800061#0" /></vehicle><vehicle id="205" type="pkw" depart="25364.218958611218"><route edges="-241660955#17 -241660955#16 -241660955#13 -241660955#12 -241660955#10 -241660955#9 -241660955#6 -241660955#5 -241660955#3 -200818108#1 -31864804" /></vehicle><vehicle id="206" type="pkw" depart="25365.020026702005"><route edges="241660957#0 241660955#0 241660955#4 241660955#6 -241660955#6" /></vehicle><vehicle id="207" type="pkw" depart="25365.82109479279"><route edges="31864804 200818108#0 4999331#0" /></vehicle><vehicle id="208" type="pkw" depart="25366.622162883577"><route edges="-31800061#0 241660955#4 -4999334" /></vehicle><vehicle id="209" type="pkw" depart="25367.423230974364"><route edges="31864804 200818108#0 241660955#0 241660955#4 241660955#6 -241660955#6 -4999334" /></vehicle><vehicle id="210" type="pkw" depart="25368.22429906515"><route edges="31864804 200818108#0 4999331#0" /></vehicle><vehicle id="211" type="pkw" depart="25369.025367155937"><route edges="-241660955#17 -241660955#16 -241660955#13 -241660955#12 -241660955#10 -241660955#9 -241660955#6 -241660955#5 -241660955#3 -200818108#1 -31864804" /></vehicle><vehicle id="212" type="pkw" depart="25369.826435246723"><route edges="319261593#12 319261593#15 319261593#16 4145590#0" /></vehicle><vehicle id="213" type="pkw" depart="25370.62750333751"><route edge