<routes xmlns:xsi="http://www.w3.org/2001/XMLSchema-instance" xsi:noNamespaceSchemaLocation="http://sumo.dlr.de/xsd/routes_file.xsd">
	<vType id="pkw" vClass="passenger" speedDev="0.1" length="4.3" minGap="1.5" />
<trip id="0" type="pkw" depart="25200" from="23429231#1" to="32324544#0" /><trip id="1" type="pkw" depart="25201.2" from="130165204" to="32038056#0" /><trip id="2" type="pkw" depart="25202.4" from="28198821#3" to="32038056#0" /><trip id="3" type="pkw" depart="25203.600000000002" from="-32038056#3" to="32038051#0" /><trip id="4" type="pkw" depart="25204.800000000003" from="23429231#1" to="32038056#0" /><trip id="5" type="pkw" depart="25206.000000000004" from="28198821#3" to="32038056#0" /><trip id="6" type="pkw" depart="25207.200000000004" from="28198821#3" to="32038056#0" /><trip id="7" type="pkw" depart="25208.400000000005" from="23429231#1" to="32038056#0" /><trip id="8" type="pkw" depart="25209.600000000006" from="28198821#3" to="32038056#0" /><trip id="9" type="pkw" depart="25210.800000000007" from="23429231#1" to="32038051#0" /><trip id="10" type="pkw" depart="25212.000000000007" from="23429231#1" to="32038051#0" /><trip id="11" type="pkw" depart="25213.200000000008" from="-32038056#3" to="-28198821#4" /><trip id="12" type="pkw" depart="25214.40000000001" from="23429231#1" to="32038051#0" /><trip id="13" type="pkw" depart="25215.60000000001" from="23429231#1" to="32324544#0" /><trip id="14" type="pkw" depart="25216.80000000001" from="-32038056#3" to="32038051#0" /><trip id="15" type="pkw" depart="25218.00000000001" from="-32038056#3" to="32324544#0" /><trip id="16" type="pkw" depart="25219.20000000001" from="27115123#2" to="32038056#0" /><trip id="17" type="pkw" depart="25220.400000000012" from="-32038056#3" to="32038051#0" /><trip id="18" type="pkw" depart="25221.600000000013" from="-32038056#3" to="32038051#0" /><trip id="19" type="pkw" depart="25222.800000000014" from="-32038056#3" to="32038051#0" /><trip id="20" type="pkw" depart="25224.000000000015" from="130165204" to="32038051#0" /><trip id="21" type="pkw" depart="25225.200000000015" from="-32038056#3" to="32038051#0" /><trip id="22" type="pkw" depart="25226.400000000016" from="27115123#2" to="32324544#0" /><trip id="23" type="pkw" depart="25227.600000000017" from="23429231#1" to="32038056#0" /><trip id="24" type="pkw" depart="25228.800000000017" from="130165204" to="32038051#0" /><trip id="25" type="pkw" depart="25230.00000000002" from="-32038056#3" to="-28198821#4" /><trip id="26" type="pkw" depart="25231.20000000002" from="23429231#1" to="32038051#0" /><trip id="27" type="pkw" depart="25232.40000000002" from="-32038056#3" to="-28198821#4" /><trip id="28" type="pkw" depart="25233.60000000002" from="-32038056#3" to="-28198821#4" /><trip id="29" type="pkw" depart="25234.80000000002" from="-32038056#3" to="-28198821#4" /><trip id="30" type="pkw" depart="25236.000000000022" from="-32038056#3" to="32038051#0" /><trip id="31" type="pkw" depart="25237.200000000023" from="28198821#3" to="32038056#0" /><trip id="32" type="pkw" depart="25238.400000000023" from="27115123#2" to="32324544#0" /><trip id="33" type="pkw" depart="25239.600000000024" from="27115123#2" to="32038056#0" /><trip id="34" type="pkw" depart="25240.800000000025" from="28198821#3" to="32038056#0" /><trip id="35" type="pkw" depart="25242.000000000025" from="28198821#3" to="32038051#0" /><trip id="36" type="pkw" depart="25243.200000000026" from="23429231#1" to="32038051#0" /><trip id="37" type="pkw" depart="25244.400000000027" from="28198821#3" to="32324544#0" /><trip id="38" type="pkw" depart="25245.600000000028" from="27115123#2" to="32324544#0" /><trip id="39" type="pkw" depart="25246.80000000003" from="23429231#1" to="32038051#0" /><trip id="40" type="pkw" depart="25248.00000000003" from="-32038056#3" to="32038051#0" /><trip id="41" type="pkw" depart="25249.20000000003" from="27115123#2" to="32038051#0" /><trip id="42" type="pkw" depart="25250.40000000003" from="23429231#1" to="32038051#0" /><trip id="43" type="pkw" depart="25251.60000000003" from="-32038056#3" to="-28198821#4" /><trip id="44" type="pkw" depart="25252.800000000032" from="27115123#2" to="32038051#0" /><trip id="45" type="pkw" depart="25254.000000000033" from="27115123#2" to="32038056#0" /><trip id="46" type="pkw" depart="25255.200000000033" from="23429231#1" to="32038056#0" /><trip id="47" type="pkw" depart="25256.400000000034" from="-32038056#3" to="32324544#0" /><trip id="48" type="pkw" depart="25257.600000000035" from="28198821#3" to="32038056#0" /><trip id="49" type="pkw" depart="25258.800000000036" from="-32038056#3" to="32038051#0" /><trip id="50" type="pkw" depart="25260.000000000036" from="23429231#1" to="32324544#0" /><trip id="51" type="pkw" depart="25261.200000000037" from="23429231#1" to="32038056#0" /><trip id="52" type="pkw" depart="25262.400000000038" from="23429231#1" to="32038056#0" /><trip id="53" type="pkw" depart="25263.60000000004" from="23429231#1" to="32038056#0" /><trip id="54" type="pkw" depart="25264.80000000004" from="-32038056#3" to="-28198821#4" /><trip id="55" type="pkw" depart="25266.00000000004" from="130165204" to="32038051#0" /><trip id="56" type="pkw" depart="25267.20000000004" from="28198821#3" to="32038056#0" /><trip id="57" type="pkw" depart="25268.40000000004" from="23429231#1" to="32038056#0" /><trip id="58" type="pkw" depart="25269.600000000042" from="23429231#1" to="32038056#0" /><trip id="59" type="pkw" depart="25270.800000000043" from="130165204" to="32038051#0" /><trip id="60" type="pkw" depart="25272.000000000044" from="28198821#3" to="32038056#0" /><trip id="61" type="pkw" depart="25273.200000000044" from="28198821#3" to="32324544#0" /><trip id="62" type="pkw" depart="25274.400000000045" from="23429231#1" to="32038051#0" /><trip id="63" type="pkw" depart="25275.600000000046" from="23429231#1" to="32038051#0" /><trip id="64" type="pkw" depart="25276.800000000047" from="23429231#1" to="32038051#0" /><trip id="65" type="pkw" depart="25278.000000000047" from="27115123#2" to="32038056#0" /><trip id="66" type="pkw" depart="25279.200000000048" from="-32038056#3" to="32324544#0" /><trip id="67" type="pkw" depart="25280.40000000005" from="27115123#2" to="32324544#0" /><trip id="68" type="pkw" depart="25281.60000000005" from="-32038056#3" to="32038051#0" /><trip id="69" type="pkw" depart="25282.80000000005" from="28198821#3" to="32324544#0" /><trip id="70" type="pkw" depart="25284.00000000005" from="130165204" to="-28198821#4" /><trip id="71" type="pkw" depart="25285.20000000005" from="23429231#1" to="32038051#0" /><trip id="72" type="pkw" depart="25286.400000000052" from="28198821#3" to="32038056#0" /><trip id="73" type="pkw" depart="25287.600000000053" from="28198821#3" to="32038056#0" /><trip id="74" type="pkw" depart="25288.800000000054" from="-32038056#3" to="32324544#0" /><trip id="75" type="pkw" depart="25290.000000000055" from="28198821#3" to="32038056#0" /><trip id="76" type="pkw" depart="25291.200000000055" from="23429231#1" to="32038051#0" /><trip id="77" type="pkw" depart="25292.400000000056" from="28198821#3" to="32038051#0" /><trip id="78" type="pkw" depart="25293.600000000057" from="23429231#1" to="32038051#0" /><trip id="79" type="pkw" depart="25294.800000000057" from="23429231#1" to="32038051#0" /><trip id="80" type="pkw" depart="25296.00000000006" from="23429231#1" to="32038051#0" /><trip id="81" type="pkw" depart="25297.20000000006" from="-32038056#3" to="-28198821#4" /><trip id="82" type="pkw" depart="25298.40000000006" from="-32038056#3" to="-28198821#4" /><trip id="83" type="pkw" depart="25299.60000000006" from="23429231#1" to="32038051#0" /><trip id="84" type="pkw" depart="25300.80000000006" from="27115123#2" to="32324544#0" /><trip id="85" type="pkw" depart="25302.000000000062" from="28198821#3" to="32038056#0" /><trip id="86" type="pkw" depart="25303.200000000063" from="23429231#1" to="32038056#0" /><trip id="87" type="pkw" depart="25304.400000000063" from="-32038056#3" to="-28198821#4" /><trip id="88" type="pkw" depart="25305.600000000064" from="130165204" to="32038051#0" /><trip id="89" type="pkw" depart="25306.800000000065" from="27115123#2" to="32038056#0" /><trip id="90" type="pkw" depart="25308.000000000065" from="28198821#3" to="32038051#0" /><trip id="91" type="pkw" depart="25309.200000000066" from="28198821#3" to="32038056#0" /><trip id="92" type="pkw" depart="25310.400000000067" from="28198821#3" to="32038051#0" /><trip id="93" type="pkw" depart="25311.600000000068" from="-32038056#3" to="32038051#0" /><trip id="94" type="pkw" depart="25312.80000000007" from="23429231#1" to="32038051#0" /><trip id="95" type="pkw" depart="25314.00000000007" from="130165204" to="32038051#0" /><trip id="96" type="pkw" depart="25315.20000000007" from="-32038056#3" to="32038051#0" /><trip id="97" type="pkw" depart="25316.40000000007" from="28198821#3" to="32038056#0" /><trip id="98" type="pkw" depart="25317.60000000007" from="28198821#3" to="32038056#0" /><trip id="99" type="pkw" depart="25318.800000000072" from="28198821#3" to="32038056#0" /><trip id="100" type="pkw" depart="25320.000000000073" from="23429231#1" to="32038051#0" /><trip id="101" type="pkw" depart="25321.200000000073" from="-32038056#3" to="32038051#0" /><trip id="102" type="pkw" depart="25322.400000000074" from="-32038056#3" to="32038051#0" /><trip id="103" type="pkw" depart="25323.600000000075" from="23429231#1" to="-28198821#4" /><trip id="104" type="pkw" depart="25324.800000000076" from="23429231#1" to="32324544#0" /><trip id="105" type="pkw" depart="25326.000000000076" from="27115123#2" to="32324544#0" /><trip id="106" type="pkw" depart="25327.200000000077" from="28198821#3" to="32038056#0" /><trip id="107" type="pkw" depart="25328.400000000078" from="23429231#1" to="32038051#0" /><trip id="108" type="pkw" depart="25329.60000000008" from="-32038056#3" to="-28198821#4" /><trip id="109" type="pkw" depart="25330.80000000008" from="23429231#1" to="32038051#0" /><trip id="110" type="pkw" depart="25332.00000000008" from="-32038056#3" to="32038051#0" /><trip id="111" type="pkw" depart="25333.20000000008" from="23429231#1" to="32038051#0" /><trip id="112" type="pkw" depart="25334.40000000008" from="-32038056#3" to="-28198821#4" /><trip id="113" type="pkw" depart="25335.600000000082" from="28198821#3" to="32038056#0" /><trip id="114" type="pkw" depart="25336.800000000083" from="28198821#3" to="32038056#0" /><trip id="115" type="pkw" depart="25338.000000000084" from="-32038056#3" to="-28198821#4" /><trip id="116" type="pkw" depart="25339.200000000084" from="28198821#3" to="32324544#0" /><trip id="117" type="pkw" depart="25340.400000000085" from="28198821#3" to="32324544#0" /><trip id="118" type="pkw" depart="25341.600000000086" from="-32038056#3" to="32038051#0" /><trip id="119" type="pkw" depart="25342.800000000087" from="-32038056#3" to="32324544#0" /><trip id="120" type="pkw" depart="25344.000000000087" from="28198821#3" to="32038056#0" /><trip id="121" type="pkw" depart="25345.200000000088" from="23429231#1" to="32038056#0" /><trip id="122" type="pkw" depart="25346.40000000009" from="130165204" to="32324544#0" /><trip id="123" type="pkw" depart="25347.60000000009" from="23429231#1" to="32038056#0" /><trip id="124" type="pkw" depart="25348.80000000009" from="28198821#3" to="32038056#0" /><trip id="125" type="pkw" depart="25350.00000000009" from="28198821#3" to="32038051#0" /><trip id="126" type="pkw" depart="25351.20000000009" from="23429231#1" to="-28198821#4" /><trip id="127" type="pkw" depart="25352.400000000092" from="28198821#3" to="32038056#0" /><trip id="128" type="pkw" depart="25353.600000000093" from="-32038056#3" to="32038051#0" /><trip id="129" type="pkw" depart="25354.800000000094" from="-32038056#3" to="32038056#0" /><trip id="130" type="pkw" depart="25356.000000000095" from="23429231#1" to="32324544#0" /><trip id="131" type="pkw" depart="25357.200000000095" from="-32038056#3" to="-28198821#4" /><trip id="132" type="pkw" depart="25358.400000000096" from="-32038056#3" to="-28198821#4" /><trip id="133" type="pkw" depart="25359.600000000097" from="28198821#3" to="32038056#0" /><trip id="134" type="pkw" depart="25360.800000000097" from="-32038056#3" to="32038051#0" /><trip id="135" type="pkw" depart="25362.0000000001" from="23429231#1" to="32038051#0" /><trip id="136" type="pkw" depart="25363.2000000001" from="28198821#3" to="32038051#0" /><trip id="137" type="pkw" depart="25364.4000000001" from="-32038056#3" to="32324544#0" /><trip id="138" type="pkw" depart="25365.6000000001" from="-32038056#3" to="32038051#0" /><trip id="139" type="pkw" depart="25366.8000000001" from="-32038056#3" to="32038051#0" /><trip id="140" type="pkw" depart="25368.000000000102" from="130165204" to="32038051#0" /><trip id="141" type="pkw" depart="25369.200000000103" from="28198821#3" to="32038056#0" /><trip id="142" type="pkw" depart="25370.400000000103" from="28198821#3" to="32038056#0" /><trip id="143" type="pkw" depart="25371.600000000104" from="-32038056#3" to="32038051#0" /><trip id="144" type="pkw" depart="25372.800000000105" from="23429231#1" to="32038051#0" /><trip id="145" type="pkw" depart="25374.000000000106" from="-32038056#3" to="-28198821#4" /><trip id="146" type="pkw" depart="25375.200000000106" from="23429231#1" to="32038051#0" /><trip id="147" type="pkw" depart="25376.400000000107" from="28198821#3" to="32038056#0" /><trip id="148" type="pkw" depart="25377.600000000108" from="28198821#3" to="32038056#0" /><trip id="149" type="pkw" depart="25378.80000000011" from="28198821#3" to="32038056#0" /><trip id="150" type="pkw" depart="25380.00000000011" from="28198821#3" to="32038051#0" /><trip id="151" type="pkw" depart="25381.20000000011" from="27115123#2" to="-28198821#4" /><trip id="152" type="pkw" depart="25382.40000000011" from="23429231#1" to="32038056#0" /><trip id="153" type="pkw" depart="25383.60000000011" from="28198821#3" to="32038056#0" /><trip id="154" type="pkw" depart="25384.800000000112" from="-32038056#3" to="-28198821#4" /><trip id="155" type="pkw" depart="25386.000000000113" from="23429231#1" to="32038056#0" /><trip id="156" type="pkw" depart="25387.200000000114" from="28198821#3" to="32038056#0" /><trip id="157" type="pkw" depart="25388.400000000114" from="-32038056#3" to="32038051#0" /><trip id="158" type="pkw" depart="25389.600000000115" from="23429231#1" to="32038051#0" /><trip id="159" type="pkw" depart="25390.800000000116" from="23429231#1" to="32038056#0" /><trip id="160" type="pkw" depart="25392.000000000116" from="-32038056#3" to="32038051#0" /><trip id="161" type="pkw" depart="25393.200000000117" from="23429231#1" to="32324544#0" /><trip id="162" type="pkw" depart="25394.400000000118" from="23429231#1" to="32038051#0" /><trip id="163" type="pkw" depart="25395.60000000012" from="23429231#1" to="32038051#0" /><trip id="164" type="pkw" depart="25396.80000000012" from="28198821#3" to="32038051#0" /><trip id="165" type="pkw" depart="25398.00000000012" from="27115123#2" to="32324544#0" /><trip id="166" type="pkw" depart="25399.20000000012" from="-32038056#3" to="-28198821#4" /><trip id="167" type="pkw" depart="25400.40000000012" from="-32038056#3" to="-28198821#4" /><trip id="168" type="pkw" depart="25401.600000000122" from="-32038056#3" to="-28198821#4" /><trip id="169" type="pkw" depart="25402.800000000123" from="23429231#1" to="-28198821#4" /><trip id="170" type="pkw" depart="25404.000000000124" from="27115123#2" to="32324544#0" /><trip id="171" type="pkw" depart="25405.200000000124" from="23429231#1" to="32038051#0" /><trip id="172" type="pkw" depart="25406.400000000125" from="-32038056#3" to="32324544#0" /><trip id="173" type="pkw" depart="25407.600000000126" from="23429231#1" to="32038051#0" /><trip id="174" type="pkw" depart="25408.800000000127" from="-32038056#3" to="32038051#0" /><trip id="175" type="pkw" depart="25410.000000000127" from="23429231#1" to="32038056#0" /><trip id="176" type="pkw" depart="25411.200000000128" from="23429231#1" to="32038051#0" /><trip id="177" type="pkw" depart="25412.40000000013" from="-32038056#3" to="-28198821#4" /><trip id="178" type="pkw" depart="25413.60000000013" from="-32038056#3" to="32038051#0" /><trip id="179" type="pkw" depart="25414.80000000013" from="-32038056#3" to="32038051#0" /><trip id="180" type="pkw" depart="25416.00000000013" from="23429231#1" to="32038051#0" /><trip id="181" type="pkw" depart="25417.20000000013" from="130165204" to="32038056#0" /><trip id="182" type="pkw" depart="25418.400000000132" from="23429231#1" to="32038051#0" /><trip id="183" type="pkw" depart="25419.600000000133" from="23429231#1" to="32324544#0" /><trip id="184" type="pkw" depart="25420.800000000134" from="27115123#2" to="32324544#0" /><trip id="185" type="pkw" depart="25422.000000000135" from="-32038056#3" to="32038051#0" /><trip id="186" type="pkw" depart="25423.200000000135" from="130165204" to="32038051#0" /><trip id="187" type="pkw" depart="25424.400000000136" from="-32038056#3" to="-28198821#4" /><trip id="188" type="pkw" depart="25425.600000000137" from="-32038056#3" to="-28198821#4" /><trip id="189" type="pkw" depart="25426.800000000138" from="23429231#1" to="32038051#0" /><trip id="190" type="pkw" depart="25428.00000000014" from="28198821#3" to="32038056#0" /><trip id="191" type="pkw" depart="25429.20000000014" from="23429231#1" to="32038056#0" /><trip id="192" type="pkw" depart="25430.40000000014" from="23429231#1" to="32038051#0" /><trip id="193" type="pkw" depart="25431.60000000014" from="-32038056#3" to="-28198821#4" /><trip id="194" type="pkw" depart="25432.80000000014" from="27115123#2" to="32038051#0" /><trip id="195" type="pkw" depart="25434.000000000142" from="-32038056#3" to="-28198821#4" /><trip id="196" type="pkw" depart="25435.200000000143" from="130165204" to="32324544#0" /><trip id="197" type="pkw" depart="25436.400000000143" from="-32038056#3" to="32324544#0" /><trip id="198" type="pkw" depart="25437.600000000144" from="27115123#2" to="32324544#0" /><trip id="199" type="pkw" depart="25438.800000000145" from="-32038056#3" to="32038051#0" /><trip id="200" type="pkw" depart="25440.000000000146" from="23429231#1" to="32038051#0" /><trip id="201" type="pkw" depart="25441.200000000146" from="-32038056#3" to="-28198821#4" /><trip id="202" type="pkw" depart="25442.400000000147" from="23429231#1" to="32038056#0" /><trip id="203" type="pkw" depart="25443.600000000148" from="28198821#3" to="32038056#0" /><trip id="204" type="pkw" depart="25444.80000000015" from="28198821#3" to="32038056#0" /><trip id="205" type="pkw" depart="25446.00000000015" from="23429231#1" to="32038056#0" /><trip id="206" type="pkw" depart="25447.20000000015" from="23429231#1" to="-28198821#4" /><trip id="207" type="pkw" depart="25448.40000000015" from="23429231#1" to="32038056#0" /><trip id="208" type="pkw" depart="25449.60000000015" from="28198821#3" to="32038051#0" /><trip id="209" type="pkw" depart="25450.800000000152" from="23429231#1" to="32038056#0" /><trip id="210" type="pkw" depart="25452.000000000153" from="23429231#1" to="32324544#0" /><trip id="211" type="pkw" depart="25453.200000000154" from="27115123#2" to="32038056#0" /><trip id="212" type="pkw" depart="25454.400000000154" from="-32038056#3" to="32038051#0" /><trip id="213" type="pkw" depart="25455.600000000155" from="-32038056#3" to="32038051#0" /><trip id="214" type="pkw" depart="25456.800000000156" from="-32038056#3" to="-28198821#4" /><trip id="215" type="pkw" depart="25458.000000000156" from="23429231#1" to="32038056#0" /><trip id="216" type="pkw" depart="25459.200000000157" from="23429231#1" to="32038056#0" /><trip id="217" type="pkw" depart="25460.400000000158" from="28198821#3" to="32038051#0" /><trip id="218" type="pkw" depart="25461.60000000016" from="27115123#2" to="32324544#0" /><trip id="219" type="pkw" depart="25462.80000000016" from="23429231#1" to="32038056#0" /><trip id="220" type="pkw" depart="25464.00000000016" from="23429231#1" to="32038051#0" /><trip id="221" type="pkw" depart="25465.20000000016" from="28198821#3" to="32324544#0" /><trip id="222" type="pkw" depart="25466.40000000016" from="-32038056#3" to="32324544#0" /><trip id="223" type="pkw" depart="25467.600000000162" from="23429231#1" to="32038051#0" /><trip id="224" type="pkw" depart="25468.800000000163" from="130165204" to="32038051#0" /><trip id="225" type="pkw" depart="25470.000000000164" from="23429231#1" to="32038051#0" /><trip id="226" type="pkw" depart="25471.200000000164" from="28198821#3" to="32038056#0" /><trip id="227" type="pkw" depart="25472.400000000165" from="28198821#3" to="32038056#0" /><trip id="228" type="pkw" depart="25473.600000000166" from="28198821#3" to="32038051#0" /><trip id="229" type="pkw" depart="25474.800000000167" from="130165204" to="32324544#0" /><trip id="230" type="pkw" depart="25476.000000000167" from="23429231#1" to="32038051#0" /><trip id="231" type="pkw" depart="25477.200000000168" from="23429231#1" to="32038056#0" /><trip id="232" type="pkw" depart="25478.40000000017" from="23429231#1" to="32038051#0" /><trip id="233" type="pkw" depart="25479.60000000017" from="28198821#3" to="32038051#0" /><trip id="234" type="pkw" depart="25480.80000000017" from="23429231#1" to="32324544#0" /><trip id="235" type="pkw" depart="25482.00000000017" from="23429231#1" to="32038056#0" /><trip id="236" type="pkw" depart="25483.20000000017" from="28198821#3" to="32038056#0" /><trip id="237" type="pkw" depart="25484.400000000172" from="28198821#3" to="32038056#0" /><trip id="238" type="pkw" depart="25485.600000000173" from="28198821#3" to="32038056#0" /><trip id="239" type="pkw" depart="25486.800000000174" from="23429231#1" to="32038051#0" /><trip id="240" type="pkw" depart="25488.000000000175" from="130165204" to="32038056#0" /><trip id="241" type="pkw" depart="25489.200000000175" from="-32038056#3" to="32038051#0" /><trip id="242" type="pkw" depart="25490.400000000176" from="-32038056#3" to="32038051#0" /><trip id="243" type="pkw" depart="25491.600000000177" from="28198821#3" to="32038056#0" /><trip id="244" type="pkw" depart="25492.800000000178" from="28198821#3" to="32038056#0" /><trip id="245" type="pkw" depart="25494.00000000018" from="27115123#2" to="32038056#0" /><trip id="246" type="pkw" depart="25495.20000000018" from="28198821#3" to="32038056#0" /><trip id="247" type="pkw" depart="25496.40000000018" from="-32038056#3" to="32324544#0" /><trip id="248" type="pkw" depart="25497.60000000018" from="23429231#1" to="-28198821#4" /><trip id="249" type="pkw" depart="25498.80000000018" from="-32038056#3" to="-28198821#4" /><trip id="250" type="pkw" depart="25500.000000000182" from="28198821#3" to="32038056#0" /><trip id="251" type="pkw" depart="25501.200000000183" from="23429231#1" to="32038051#0" /><trip id="252" type="pkw" depart="25502.400000000183" from="23429231#1" to="32324544#0" /><trip id="253" type="pkw" depart="25503.600000000184" from="23429231#1" to="32324544#0" /><trip id="254" type="pkw" depart="25504.800000000185" from="23429231#1" to="32038051#0" /><trip id="255" type="pkw" depart="25506.000000000186" from="23429231#1" to="32038051#0" /><trip id="256" type="pkw" depart="25507.200000000186" from="-32038056#3" to="32324544#0" /><trip id="257" type="pkw" depart="25508.400000000187" from="23429231#1" to="32038056#0" /><trip id="258" type="pkw" depart="25509.600000000188" from="-32038056#3" to="-28198821#4" /><trip id="259" type="pkw" depart="25510.80000000019" from="23429231#1" to="32038056#0" /><trip id="260" type="pkw" depart="25512.00000000019" from="23429231#1" to="32038056#0" /><trip id="261" type="pkw" depart="25513.20000000019" from="-32038056#3" to="-28198821#4" /><trip id="262" type="pkw" depart="25514.40000000019" from="23429231#1" to="32038056#0" /><trip id="263" type="pkw" depart="25515.60000000019" from="27115123#2" to="32038051#0" /><trip id="264" type="pkw" depart="25516.800000000192" from="28198821#3" to="32038056#0" /><trip id="265" type="pkw" depart="25518.000000000193" from="28198821#3" to="32038056#0" /><trip id="266" type="pkw" depart="25519.200000000194" from="27115123#2" to="32038051#0" /><trip id="267" type="pkw" depart="25520.400000000194" from="23429231#1" to="32038056#0" /><trip id="268" type="pkw" depart="25521.600000000195" from="27115123#2" to="32038051#0" /><trip id="269" type="pkw" depart="25522.800000000196" from="23429231#1" to="32038051#0" /><trip id="270" type="pkw" depart="25524.000000000196" from="23429231#1" to="32038051#0" /><trip id="271" type="pkw" depart="25525.200000000197" from="28198821#3" to="32324544#0" /><trip id="272" type="pkw" depart="25526.400000000198" from="-32038056#3" to="32038051#0" /><trip id="273" type="pkw" depart="25527.6000000002" from="28198821#3" to="32038051#0" /><trip id="274" type="pkw" depart="25528.8000000002" from="23429231#1" to="-28198821#4" /><trip id="275" type="pkw" depart="25530.0000000002" from="23429231#1" to="32038051#0" /><trip id="276" type="pkw" depart="25531.2000000002" from="23429231#1" to="32038051#0" /><trip id="277" type="pkw" depart="25532.4000000002" from="-32038056#3" to="-28198821#4" /><trip id="278" type="pkw" depart="25533.600000000202" from="23429231#1" to="32038051#0" /><trip id="279" type="pkw" depart="25534.800000000203" from="-32038056#3" to="-28198821#4" /><trip id="280" type="pkw" depart="25536.000000000204" from="28198821#3" to="32324544#0" /><trip id="281" type="pkw" depart="25537.200000000204" from="23429231#1" to="32038051#0" /><trip id="282" type="pkw" depart="25538.400000000205" from="23429231#1" to="32038051#0" /><trip id="283" type="pkw" depart="25539.600000000206" from="-32038056#3" to="32038051#0" /><trip id="284" type="pkw" depart="25540.800000000207" from="28198821#3" to="32038051#0" /><trip id="285" type="pkw" depart="25542.000000000207" from="28198821#3" to="32038051#0" /><trip id="286" type="pkw" depart="25543.200000000208" from="23429231#1" to="32038051#0" /><trip id="287" type="pkw" depart="25544.40000000021" from="28198821#3" to="32324544#0" /><trip id="288" type="pkw" depart="25545.60000000021" from="-32038056#3" to="-28198821#4" /><trip id="289" type="pkw" depart="25546.80000000021" from="27115123#2" to="32038051#0" /><trip id="290" type="pkw" depart="25548.00000000021" from="-32038056#3" to="32038051#0" /><trip id="291" type="pkw" depart="25549.20000000021" from="28198821#3" to="32038051#0" /><trip id="292" type="pkw" depart="25550.400000000212" from="-32038056#3" to="-28198821#4" /><trip id="293" type="pkw" depart="25551.600000000213" from="23429231#1" to="32038051#0" /><trip id="294" type="pkw" depart="25552.800000000214" from="28198821#3" to="32038051#0" /><trip id="295" type="pkw" depart="25554.000000000215" from="23429231#1" to="32038051#0" /><trip id="296" type="pkw" depart="25555.200000000215" from="28198821#3" to="32038051#0" /><trip id="297" type="pkw" depart="25556.400000000216" from="23429231#1" to="32324544#0" /><trip id="298" type="pkw" depart="25557.600000000217" from="23429231#1" to="32038051#0" /><trip id="299" type="pkw" depart="25558.800000000218" from="-32038056#3" to="-28198821#4" /><trip id="300" type="pkw" depart="25560.00000000022" from="27115123#2" to="32324544#0" /><trip id="301" type="pkw" depart="25561.20000000022" from="23429231#1" to="32038051#0" /><trip id="302" type="pkw" depart="25562.40000000022" from="27115123#2" to="32038051#0" /><trip id="303" type="pkw" depart="25563.60000000022" from="23429231#1" to="32038051#0" /><trip id="304" type="pkw" depart="25564.80000000022" from="23429231#1" to="32324544#0" /><trip id="305" type="pkw" depart="25566.000000000222" from="27115123#2" to="32038051#0" /><trip id="306" type="pkw" depart="25567.200000000223" from="23429231#1" to="32038056#0" /><trip id="307" type="pkw" depart="25568.400000000223" from="-32038056#3" to="-28198821#4" /><trip id="308" type="pkw" depart="25569.600000000224" from="23429231#1" to="32038051#0" /><trip id="309" type="pkw" depart="25570.800000000225" from="23429231#1" to="32038056#0" /><trip id="310" type="pkw" depart="25572.000000000226" from="-32038056#3" to="32038051#0" /><trip id="311" type="pkw" depart="25573.200000000226" from="27115123#2" to="32324544#0" /><trip id="312" type="pkw" depart="25574.400000000227" from="23429231#1" to="32038056#0" /><trip id="313" type="pkw" depart="25575.600000000228" from="23429231#1" to="32324544#0" /><trip id="314" type="pkw" depart="25576.80000000023" from="23429231#1" to="32038051#0" /><trip id="315" type="pkw" depart="25578.00000000023" from="23429231#1" to="-28198821#4" /><trip id="316" type="pkw" depart="25579.20000000023" from="23429231#1" to="32038056#0" /><trip id="317" type="pkw" depart="25580.40000000023" from="28198821#3" to="32038056#0" /><trip id="318" type="pkw" depart="25581.60000000023" from="23429231#1" to="32038051#0" /><trip id="319" type="pkw" depart="25582.800000000232" from="-32038056#3" to="-28198821#4" /><trip id="320" type="pkw" depart="25584.000000000233" from="23429231#1" to="32038051#0" /><trip id="321" type="pkw" depart="25585.200000000234" from="-32038056#3" to="-28198821#4" /><trip id="322" type="pkw" depart="25586.400000000234" from="27115123#2" to="32038051#0" /><trip id="323" type="pkw" depart="25587.600000000235" from="-32038056#3" to="32038051#0" /><trip id="324" type="pkw" depart="25588.800000000236" from="28198821#3" to="32038056#0" /><trip id="325" type="pkw" depart="25590.000000000236" from="-32038056#3" to="32324544#0" /><trip id="326" type="pkw" depart="25591.200000000237" from="23429231#1" to="32038051#0" /><trip id="327" type="pkw" depart="25592.400000000238" from="23429231#1" to="32038051#0" /><trip id="328" type="pkw" depart="25593.60000000024" from="28198821#3" to="32038051#0" /><trip id="329" type="pkw" depart="25594.80000000024" from="23429231#1" to="32038051#0" /><trip id="330" type="pkw" depart="25596.00000000024" from="28198821#3" to="32038056#0" /><trip id="331" type="pkw" depart="25597.20000000024" from="-32038056#3" to="32038051#0" /><trip id="332" type="pkw" depart="25598.40000000024" from="2