<routes xmlns:xsi="http://www.w3.org/2001/XMLSchema-instance" xsi:noNamespaceSchemaLocation="http://sumo.dlr.de/xsd/routes_file.xsd">
	<vType id="bus" vClass="bus" color="green" />
	<vType id="default_017" vClass="passenger" color="red" />
    <vType id="random_017" vClass="passenger" color="blue" />
	<vType id="default_016" vClass="passenger" color="red" />
    <vType id="random_016" vClass="passenger" color="blue" />
	<vType id="default_015" vClass="passenger" color="red" />
    <vType id="random_015" vClass="passenger" color="blue" />
	<vType id="default_014" vClass="passenger" color="red" />
    <vType id="random_014" vClass="passenger" color="blue" />
	<vType id="default_013" vClass="passenger" color="red" />
    <vType id="random_013" vClass="passenger" color="blue" />
    <vType id="default_012" vClass="passenger" color="red" />
    <vType id="random_012" vClass="passenger" color="blue" />
	<vType id="default_011" vClass="passenger" color="red" />
    <vType id="random_011" vClass="passenger" color="blue" />
	<vType id="default_010" vClass="passenger" color="red" />
    <vType id="random_010" vClass="passenger" color="blue" />
	<vType id="default_009" vClass="passenger" color="red" />
    <vType id="random_009" vClass="passenger" color="blue" />
	<vType id="default_008" vClass="passenger" color="red" />
    <vType id="random_008" vClass="passenger" color="blue" />
	<vType id="default_007" vClass="passenger" color="red" />
    <vType id="random_007" vClass="passenger" color="blue" />
	<vType id="default_006" vClass="passenger" color="red" />
    <vType id="random_006" vClass="passenger" color="blue" />
	<vType id="default_005" vClass="passenger" color="red" />
    <vType id="random_005" vClass="passenger" color="blue" />
	<vType id="default_004" vClass="passenger" color="red" />
    <vType id="random_004" vClass="passenger" color="blue" />
	<vType id="default_003" vClass="passenger" color="red" />
    <vType id="random_003" vClass="passenger" color="blue" />
	<vType id="default_022" vClass="passenger" color="red" />
    <vType id="random_022" vClass="passenger" color="blue" />
	<vType id="default_021" vClass="passenger" color="red" />
    <vType id="random_021" vClass="passenger" color="blue" />
	<vType id="default_020" vClass="passenger" color="red" />
    <vType id="random_020" vClass="passenger" color="blue" />
	<vType id="default_019" vClass="passenger" color="red" />
    <vType id="random_019" vClass="passenger" color="blue" />
	<vType id="default_018" vClass="passenger" color="red" />
    <vType id="random_018" vClass="passenger" color="blue" />
	<vType id="default_002" vClass="passenger" color="red" />
    <vType id="random_002" vClass="passenger" color="blue" />
	<vType id="default_001" vClass="passenger" color="red" />
    <vType id="random_001" vClass="passenger" color="blue" />
<trip id="0" type="random_017" depart="57600" from="104010354" to="124812857#0" /><trip id="1" type="default_017" depart="57602.0979020979" from="201963537#1" to="104012170" /><trip id="2" type="default_016" depart="57604.1958041958" from="104010354" to="124812857#0" /><trip id="3" type="default_016" depart="57606.2937062937" from="104010354" to="124812857#0" /><trip id="4" type="default_017" depart="57608.3916083916" from="653473569#5" to="124812857#0" /><trip id="5" type="default_016" depart="57610.4895104895" from="25149219#1" to="-653473569#5" /><trip id="6" type="default_016" depart="57612.587412587396" from="104010354" to="124812857#0" /><trip id="7" type="random_016" depart="57614.685314685295" from="201963537#1" to="-653473569#5" /><trip id="8" type="default_017" depart="57616.783216783195" from="104010354" to="124812857#0" /><trip id="9" type="default_017" depart="57618.881118881094" from="25149219#1" to="-653473569#5" /><trip id="10" type="default_016" depart="57620.97902097899" from="201963537#1" to="-653473569#5" /><trip id="11" type="default_015" depart="57623.07692307689" from="201963537#1" to="104012170" /><trip id="12" type="default_016" depart="57625.17482517479" from="201963537#1" to="104012170" /><trip id="13" type="default_017" depart="57627.27272727269" from="653473569#5" to="124812857#0" /><trip id="14" type="default_017" depart="57629.37062937059" from="104010354" to="124812857#0" /><trip id="15" type="default_017" depart="57631.46853146849" from="104010354" to="124812857#0" /><trip id="16" type="default_016" depart="57633.56643356639" from="25149219#1" to="-653473569#5" /><trip id="17" type="random_016" depart="57635.66433566429" from="201963537#1" to="104012170" /><trip id="18" type="default_017" depart="57637.76223776219" from="104010354" to="124812857#0" /><trip id="19" type="default_017" depart="57639.86013986009" from="104010354" to="124812857#0" /><trip id="20" type="default_016" depart="57641.95804195799" from="653473569#5" to="124812857#0" /><trip id="21" type="default_017" depart="57644.055944055886" from="653473569#5" to="104012170" /><trip id="22" type="default_017" depart="57646.153846153786" from="201963537#1" to="104012170" /><trip id="23" type="default_017" depart="57648.251748251685" from="104010354" to="124812857#0" /><trip id="24" type="default_017" depart="57650.349650349584" from="201963537#1" to="-653473569#5" /><trip id="25" type="default_017" depart="57652.447552447484" from="104010354" to="124812857#0" /><trip id="26" type="default_017" depart="57654.54545454538" from="653473569#5" to="124812857#0" /><trip id="27" type="default_016" depart="57656.64335664328" from="653473569#5" to="104012170" /><trip id="28" type="default_017" depart="57658.74125874118" from="104010354" to="124812857#0" /><trip id="29" type="default_017" depart="57660.83916083908" from="25149219#1" to="104012170" /><trip id="30" type="default_016" depart="57662.93706293698" from="25149219#1" to="-653473569#5" /><trip id="31" type="default_017" depart="57665.03496503488" from="25149219#1" to="104012170" /><trip id="32" type="default_017" depart="57667.13286713278" from="201963537#1" to="104012170" /><trip id="33" type="default_016" depart="57669.23076923068" from="201963537#1" to="-653473569#5" /><trip id="34" type="default_017" depart="57671.32867132858" from="104010354" to="124812857#0" /><trip id="35" type="default_016" depart="57673.42657342648" from="25149219#1" to="-653473569#5" /><trip id="36" type="default_017" depart="57675.52447552438" from="653473569#5" to="124812857#0" /><trip id="37" type="default_017" depart="57677.622377622276" from="653473569#5" to="124812857#0" /><trip id="38" type="default_016" depart="57679.720279720175" from="104010354" to="-653473569#5" /><trip id="39" type="default_017" depart="57681.818181818075" from="201963537#1" to="104012170" /><trip id="40" type="default_016" depart="57683.916083915974" from="201963537#1" to="-653473569#5" /><trip id="41" type="default_017" depart="57686.01398601387" from="201963537#1" to="-653473569#5" /><trip id="42" type="default_016" depart="57688.11188811177" from="25149219#1" to="-653473569#5" /><trip id="43" type="default_016" depart="57690.20979020967" from="201963537#1" to="104012170" /><trip id="44" type="default_017" depart="57692.30769230757" from="201963537#1" to="104012170" /><trip id="45" type="default_017" depart="57694.40559440547" from="104010354" to="124812857#0" /><trip id="46" type="default_016" depart="57696.50349650337" from="653473569#5" to="124812857#0" /><trip id="47" type="default_017" depart="57698.60139860127" from="201963537#1" to="104012170" /><trip id="48" type="default_017" depart="57700.69930069917" from="653473569#5" to="104012170" /><trip id="49" type="default_017" depart="57702.79720279707" from="653473569#5" to="124812857#0" /><trip id="50" type="default_017" depart="57704.89510489497" from="201963537#1" to="104012170" /><trip id="51" type="default_017" depart="57706.99300699287" from="104010354" to="124812857#0" /><trip id="52" type="default_016" depart="57709.090909090766" from="653473569#5" to="124812857#0" /><trip id="53" type="default_016" depart="57711.188811188666" from="25149219#1" to="104012170" /><trip id="54" type="default_017" depart="57713.286713286565" from="104010354" to="124812857#0" /><trip id="55" type="default_017" depart="57715.384615384464" from="201963537#1" to="104012170" /><trip id="56" type="default_017" depart="57717.48251748236" from="104010354" to="124812857#0" /><trip id="57" type="default_017" depart="57719.58041958026" from="201963537#1" to="104012170" /><trip id="58" type="default_016" depart="57721.67832167816" from="201963537#1" to="104012170" /><trip id="59" type="default_017" depart="57723.77622377606" from="201963537#1" to="-653473569#5" /><trip id="60" type="default_017" depart="57725.87412587396" from="201963537#1" to="-653473569#5" /><trip id="61" type="default_016" depart="57727.97202797186" from="201963537#1" to="-653473569#5" /><trip id="62" type="default_016" depart="57730.06993006976" from="201963537#1" to="104012170" /><trip id="63" type="default_017" depart="57732.16783216766" from="104010354" to="124812857#0" /><trip id="64" type="default_017" depart="57734.26573426556" from="653473569#5" to="124812857#0" /><trip id="65" type="default_016" depart="57736.36363636346" from="201963537#1" to="104012170" /><trip id="66" type="default_017" depart="57738.46153846136" from="104010354" to="124812857#0" /><trip id="67" type="default_017" depart="57740.55944055926" from="104010354" to="124812857#0" /><trip id="68" type="random_016" depart="57742.657342657156" from="201963537#1" to="-653473569#5" /><trip id="69" type="default_016" depart="57744.755244755055" from="201963537#1" to="104012170" /><trip id="70" type="default_017" depart="57746.853146852955" from="653473569#5" to="104012170" /><trip id="71" type="default_017" depart="57748.951048950854" from="201963537#1" to="-653473569#5" /><trip id="72" type="default_017" depart="57751.04895104875" from="104010354" to="124812857#0" /><trip id="73" type="random_016" depart="57753.14685314665" from="653473569#5" to="124812857#0" /><trip id="74" type="random_016" depart="57755.24475524455" from="653473569#5" to="124812857#0" /><trip id="75" type="default_016" depart="57757.34265734245" from="104010354" to="-653473569#5" /><trip id="76" type="default_017" depart="57759.44055944035" from="201963537#1" to="104012170" /><trip id="77" type="default_016" depart="57761.53846153825" from="25149219#1" to="-653473569#5" /><trip id="78" type="default_017" depart="57763.63636363615" from="201963537#1" to="104012170" /><trip id="79" type="default_017" depart="57765.73426573405" from="104010354" to="124812857#0" /><trip id="80" type="default_016" depart="57767.83216783195" from="653473569#5" to="104012170" /><trip id="81" type="default_017" depart="57769.93006992985" from="653473569#5" to="104012170" /><trip id="82" type="default_016" depart="57772.02797202775" from="201963537#1" to="-653473569#5" /><trip id="83" type="default_017" depart="57774.125874125646" from="104010354" to="124812857#0" /><trip id="84" type="random_016" depart="57776.223776223545" from="104010354" to="124812857#0" /><trip id="85" type="default_016" depart="57778.321678321445" from="104010354" to="124812857#0" /><trip id="86" type="default_017" depart="57780.419580419344" from="653473569#5" to="124812857#0" /><trip id="87" type="default_017" depart="57782.51748251724" from="653473569#5" to="104012170" /><trip id="88" type="default_017" depart="57784.61538461514" from="201963537#1" to="104012170" /><trip id="89" type="default_016" depart="57786.71328671304" from="104010354" to="124812857#0" /><trip id="90" type="default_017" depart="57788.81118881094" from="201963537#1" to="104012170" /><trip id="91" type="default_017" depart="57790.90909090884" from="201963537#1" to="104012170" /><trip id="92" type="default_016" depart="57793.00699300674" from="653473569#5" to="124812857#0" /><trip id="93" type="default_017" depart="57795.10489510464" from="201963537#1" to="104012170" /><trip id="94" type="default_016" depart="57797.20279720254" from="201963537#1" to="-653473569#5" /><trip id="95" type="bus" depart="57799.30069930044" from="104010354" to="124812857#0" /><trip id="96" type="default_016" depart="57801.39860139834" from="653473569#5" to="124812857#0" /><trip id="97" type="default_015" depart="57803.49650349624" from="201963537#1" to="104012170" /><trip id="98" type="bus" depart="57805.594405594136" from="25149219#1" to="-653473569#5" /><trip id="99" type="default_017" depart="57807.692307692036" from="104010354" to="124812857#0" /><trip id="100" type="default_017" depart="57809.790209789935" from="653473569#5" to="124812857#0" /><trip id="101" type="random_016" depart="57811.888111887834" from="653473569#5" to="124812857#0" /><trip id="102" type="default_017" depart="57813.986013985734" from="201963537#1" to="104012170" /><trip id="103" type="default_016" depart="57816.08391608363" from="653473569#5" to="124812857#0" /><trip id="104" type="default_016" depart="57818.18181818153" from="653473569#5" to="124812857#0" /><trip id="105" type="default_017" depart="57820.27972027943" from="104010354" to="-653473569#5" /><trip id="106" type="default_016" depart="57822.37762237733" from="104010354" to="124812857#0" /><trip id="107" type="default_017" depart="57824.47552447523" from="104010354" to="124812857#0" /><trip id="108" type="default_017" depart="57826.57342657313" from="201963537#1" to="-653473569#5" /><trip id="109" type="default_017" depart="57828.67132867103" from="201963537#1" to="104012170" /><trip id="110" type="default_016" depart="57830.76923076893" from="104010354" to="124812857#0" /><trip id="111" type="default_017" depart="57832.86713286683" from="201963537#1" to="-653473569#5" /><trip id="112" type="default_016" depart="57834.96503496473" from="25149219#1" to="-653473569#5" /><trip id="113" type="default_017" depart="57837.06293706263" from="653473569#5" to="124812857#0" /><trip id="114" type="default_016" depart="57839.160839160526" from="653473569#5" to="124812857#0" /><trip id="115" type="default_017" depart="57841.258741258425" from="653473569#5" to="104012170" /><trip id="116" type="default_016" depart="57843.356643356325" from="104010354" to="124812857#0" /><trip id="117" type="default_017" depart="57845.454545454224" from="104010354" to="124812857#0" /><trip id="118" type="default_016" depart="57847.55244755212" from="104010354" to="124812857#0" /><trip id="119" type="default_016" depart="57849.65034965002" from="25149219#1" to="-653473569#5" /><trip id="120" type="default_017" depart="57851.74825174792" from="201963537#1" to="104012170" /><trip id="121" type="default_017" depart="57853.84615384582" from="104010354" to="124812857#0" /><trip id="122" type="default_017" depart="57855.94405594372" from="104010354" to="124812857#0" /><trip id="123" type="default_017" depart="57858.04195804162" from="25149219#1" to="-653473569#5" /><trip id="124" type="default_016" depart="57860.13986013952" from="104010354" to="-653473569#5" /><trip id="125" type="default_017" depart="57862.23776223742" from="104010354" to="124812857#0" /><trip id="126" type="default_016" depart="57864.33566433532" from="653473569#5" to="124812857#0" /><trip id="127" type="default_016" depart="57866.43356643322" from="104010354" to="124812857#0" /><trip id="128" type="bus" depart="57868.53146853112" from="201963537#1" to="104012170" /><trip id="129" type="default_016" depart="57870.629370629016" from="201963537#1" to="104012170" /><trip id="130" type="default_016" depart="57872.727272726916" from="653473569#5" to="104012170" /><trip id="131" type="default_016" depart="57874.825174824815" from="25149219#1" to="-653473569#5" /><trip id="132" type="default_017" depart="57876.923076922714" from="104010354" to="124812857#0" /><trip id="133" type="default_017" depart="57879.02097902061" from="104010354" to="124812857#0" /><trip id="134" type="default_017" depart="57881.11888111851" from="201963537#1" to="104012170" /><trip id="135" type="default_017" depart="57883.21678321641" from="104010354" to="124812857#0" /><trip id="136" type="default_017" depart="57885.31468531431" from="653473569#5" to="104012170" /><trip id="137" type="random_017" depart="57887.41258741221" from="104010354" to="124812857#0" /><trip id="138" type="default_017" depart="57889.51048951011" from="653473569#5" to="124812857#0" /><trip id="139" type="default_017" depart="57891.60839160801" from="201963537#1" to="-653473569#5" /><trip id="140" type="default_017" depart="57893.70629370591" from="104010354" to="124812857#0" /><trip id="141" type="default_016" depart="57895.80419580381" from="25149219#1" to="-653473569#5" /><trip id="142" type="default_017" depart="57897.90209790171" from="104010354" to="124812857#0" /><trip id="143" type="default_016" depart="57899.99999999961" from="201963537#1" to="104012170" /><trip id="144" type="default_017" depart="57902.09790209751" from="653473569#5" to="124812857#0" /><trip id="145" type="default_016" depart="57904.195804195406" from="201963537#1" to="104012170" /><trip id="146" type="default_017" depart="57906.293706293305" from="104010354" to="-653473569#5" /><trip id="147" type="default_017" depart="57908.391608391204" from="201963537#1" to="104012170" /><trip id="148" type="default_016" depart="57910.489510489104" from="104010354" to="-653473569#5" /><trip id="149" type="default_017" depart="57912.587412587" from="201963537#1" to="-653473569#5" /><trip id="150" type="default_016" depart="57914.6853146849" from="201963537#1" to="-653473569#5" /><trip id="151" type="default_017" depart="57916.7832167828" from="104010354" to="124812857#0" /><trip id="152" type="default_017" depart="57918.8811188807" from="104010354" to="124812857#0" /><trip id="153" type="default_016" depart="57920.9790209786" from="104010354" to="124812857#0" /><trip id="154" type="random_017" depart="57923.0769230765" from="201963537#1" to="104012170" /><trip id="155" type="default_017" depart="57925.1748251744" from="104010354" to="124812857#0" /><trip id="156" type="default_017" depart="57927.2727272723" from="653473569#5" to="124812857#0" /><trip id="157" type="default_016" depart="57929.3706293702" from="104010354" to="-653473569#5" /><trip id="158" type="default_016" depart="57931.4685314681" from="201963537#1" to="104012170" /><trip id="159" type="default_016" depart="57933.566433566" from="104010354" to="124812857#0" /><trip id="160" type="default_017" depart="57935.664335663896" from="25149219#1" to="-653473569#5" /><trip id="161" type="default_017" depart="57937.762237761795" from="104010354" to="124812857#0" /><trip id="162" type="default_017" depart="57939.860139859695" from="201963537#1" to="-653473569#5" /><trip id="163" type="default_016" depart="57941.958041957594" from="653473569#5" to="124812857#0" /><trip id="164" type="default_017" depart="57944.05594405549" from="201963537#1" to="104012170" /><trip id="165" type="default_017" depart="57946.15384615339" from="653473569#5" to="124812857#0" /><trip id="166" type="default_017" depart="57948.25174825129" from="201963537#1" to="104012170" /><trip id="167" type="default_017" depart="57950.34965034919" from="201963537#1" to="-653473569#5" /><trip id="168" type="default_016" depart="57952.44755244709" from="653473569#5" to="124812857#0" /><trip id="169" type="default_017" depart="57954.54545454499" from="25149219#1" to="104012170" /><trip id="170" type="random_016" depart="57956.64335664289" from="104010354" to="-653473569#5" /><trip id="171" type="default_016" depart="57958.74125874079" from="25149219#1" to="-653473569#5" /><trip id="172" type="default_017" depart="57960.83916083869" from="104010354" to="124812857#0" /><trip id="173" type="default_016" depart="57962.93706293659" from="104010354" to="124812857#0" /><trip id="174" type="default_016" depart="57965.03496503449" from="201963537#1" to="-653473569#5" /><trip id="175" type="default_017" depart="57967.132867132386" from="653473569#5" to="124812857#0" /><trip id="176" type="default_016" depart="57969.230769230286" from="653473569#5" to="124812857#0" /><trip id="177" type="default_016" depart="57971.328671328185" from="201963537#1" to="104012170" /><trip id="178" type="default_016" depart="57973.426573426084" from="104010354" to="124812857#0" /><trip id="179" type="default_017" depart="57975.524475523984" from="104010354" to="124812857#0" /><trip id="180" type="default_016" depart="57977.62237762188" from="104010354" to="124812857#0" /><trip id="181" type="default_016" depart="57979.72027971978" from="653473569#5" to="124812857#0" /><trip id="182" type="default_017" depart="57981.81818181768" from="653473569#5" to="124812857#0" /><trip id="183" type="default_017" depart="57983.91608391558" from="104010354" to="124812857#0" /><trip id="184" type="default_017" depart="57986.01398601348" from="653473569#5" to="124812857#0" /><trip id="185" type="default_017" depart="57988.11188811138" from="201963537#1" to="104012170" /><trip id="186" type="default_016" depart="57990.20979020928" from="201963537#1" to="104012170" /><trip id="187" type="default_017" depart="57992.30769230718" from="653473569#5" to="124812857#0" /><trip id="188" type="random_017" depart="57994.40559440508" from="104010354" to="124812857#0" /><trip id="189" type="default_016" depart="57996.50349650298" from="201963537#1" to="104012170" /><trip id="190" type="random_017" depart="57998.60139860088" from="653473569#5" to="124812857#0" /><trip id="191" type="default_017" depart="58000.699300698776" from="104010354" to="124812857#0" /><trip id="192" type="default_016" depart="58002.797202796675" from="201963537#1" to="-653473569#5" /><trip id="193" type="random_017" depart="58004.895104894575" from="104010354" to="124812857#0" /><trip id="194" type="default_016" depart="58006.993006992474" from="104010354" to="124812857#0" /><trip id="195" type="random_017" depart="58009.09090909037" from="201963537#1" to="104012170" /><trip id="196" type="default_017" depart="58011.18881118827" from="653473569#5" to="124812857#0" /><trip id="197" type="default_016" depart="58013.28671328617" from="201963537#1" to="-653473569#5" /><trip id="198" type="default_017" depart="58015.38461538407" from="201963537#1" to="104012170" /><trip id="199" type="default_017" depart="58017.48251748197" from="201963537#1" to="-653473569#5" /><trip id="200" type="default_017" depart="58019.58041957987" from="201963537#1" to="-653473569#5" /><trip id="201" type="default_017" depart="58021.67832167777" from="653473569#5" to="124812857#0" /><trip id="202" type="default_017" depart="58023.77622377567" from="653473569#5" to="124812857#0" /><trip id="203" type="default_017" depart="58025.87412587357" from="201963537#1" to="104012170" /><trip id="204" type="default_017" depart="58027.97202797147" from="653473569#5" to="124812857#0" /><trip id="205" type="default_016" depart="58030.06993006937" from="653473569#5" to="104012170" /><trip id="206" type="random_017" depart="58032.167832167266" from="104010354" to="124812857#0" /><trip id="207" type="default_015" depart="58034.265734265166" from="201963537#1" to="104012170" /><trip id="208" type="default_017" depart="58036.363636363065" from="653473569#5" to="124812857#0" /><trip id="209" type="default_017" depart="58038.461538460964" from="25149219#1" to="-653473569#5" /><trip id="210" type="default_016" depart="58040.55944055886" from="104010354" to="124812857#0" /><trip id="211" type="default_016" depart="58042.65734265676" from="104010354" to="124812857#0" /><trip id="212" type="default_016" depart="58044.75524475466" from="653473569#5" to="124812857#0" /><trip id="213" type="random_017" depart="58046.85314685256" from="201963537#1" to="104012170" /><trip id="214" type="default_016" depart="58048.95104895046" from="201963537#1" to="104012170" /><trip id="215" type="default_017" depart="58051.04895104836" from="104010354" to="124812857#0" /><trip id="216" type="default_017" depart="58053.14685314626" from="104010354" to="124812857#0" /><trip id="217" type="default_017" depart="58055.24475524416" from="104010354" to="124812857#0" /><trip id="218" type="default_017" depart="58057.34265734206" from="653473569#5" to="104012170" /><trip id="219" type="default_016" depart="58059.44055943996" from="653473569#5" to="104012170" /><trip id="220" type="default_017" depart="58061.53846153786" from="653473569#5" to="124812857#0" /><trip id="221" type="default_016" depart="58063.63636363576" from="201963537#1" to="104012170" /><trip id="222" type="default_016" depart="58065.734265733656" from="104010354" to="124812857#0" /><trip id="223" type="default_016" depart="58067.832167831555" from="201963537#1" to="104012170" /><trip id="224" type="random_017" depart="58069.930069929454" from="653473569#5" to="124812857#0" /><trip id="225" type="default_017" depart="58072.027972027354" from="104010354" to="124812857#0" /><trip id="226" type="default_017" depart="58074.12587412525" from="653473569#5" to="124812857#0" /><trip id="227" type="default_017" depart="58076.22377622315" from="201963537#1" to="-653473569#5" /><trip id="228" type="default_017" depart="58078.32167832105" from="104010354" to="124812857#0" /><trip id="229" type="bus" depart="58080.41958041895" from="25149219#1" to="-653473569#5" /><trip id="230" type="default_016" depart="58082.51748251685" from="653473569#5" to="124812857#0" /><trip id="231" type="default_017" depart="58084.61538461475" from="653473569#5" to="124812857#0" /><trip id="232" type="default_016" depart="58086.71328671265" from="25149219#1" to="-653473569#5" /><trip id="233" type="default_016" depart="58088.81118881055" from="25149219#1" to="-653473569#5" /><trip id="234" type="default_015" depart="58090.90909090845" from="201963537#1" to="104012170" /><trip id="235" type="default_016" depart="58093.00699300635" from="25149219#1" to="-653473569#5" /><trip id="236" type="default_017" depart="58095.10489510425" from="653473569#5" to="104012170" /><trip id="237" type="default_017" depart="58097.202797202146" from="25149219#1" to="104012170" /><trip id="238" type="default_016" depart="58099.300699300045" from="653473569#5" to="124812857#0" /><trip id="239" type="default_016" depart="58101.398601397945" from="201963537#1" to="-653473569#5" /><trip id="240" type="default_017" depart="58103.496503495844" from="104010354" to="124812857#0" /><trip id="241" type="default_017" depart="58105.59440559374" from="653473569#5" to="124812857#0" /><trip id="242" type="random_016" depart="58107.69230769164" from="653473569#5" to="124812857#0" /><trip id="243" type="default_016" depart="58109.79020978954" from="653473569#5" to="124812857#0" /><trip id="244" type="default_016" depart="58111.88811188744" from="201963537#1" to="-653473569#5" /><trip id="245" type="default_016" depart="58113.98601398534" from="104010354" to="124812857#0" /><trip id="246" type="default_017" depart="58116.08391608324" from="104010354" to="124812857#0" /><trip id="247" type="default_017" depart="58118.18181818114" from="104010354" to="124812857#0" /><trip id="248" type="default_017" depart="58120.27972027904" from="104010354" to="124812857#0" /><trip id="249" type="default_017" depart="58122.37762237694" from="104010354" to="124812857#0" /><trip id="250" type="default_017" depart="58124.47552447484" from="25149219#1" to="-653473569#5" /><trip id="251" type="default_017" depart="58126.57342657274" from="104010354" to="124812857#0" /><trip id="252" type="default_017" depart="58128.671328670636" from="653473569#5" to="104012170" /><trip id="253" type="default_017" depart="58130.769230768536" from="653473569#5" to="124812857#0" /><trip id="254" type="default_016" depart="58132.867132866435" from="201963537#1" to="104012170" /><trip id="255" type="default_017" depart="58134.965034964334" from="201963537#1" to="104012170" /><trip id="256" type="default_016" depart="58137.062937062234" from="653473569#5" to="124812857#0" /><trip id="257" type="default_017" depart="58139.16083916013" from="653473569#5" to="124812857#0" /><trip id="258" type="default_017" depart="58141.25874125803" from="104010354" to="-653473569#5" /><trip id="259" type="default_017" depart="58143.35664335593" from="653473569#5" to="124812857#0" /><trip id="260" type="default_015" depart="58145.45454545383" from="201963537#1" to="104012170" /><trip id="261" type="default_016" depart="58147.55244755173" from="104010354" to="124812857#0" /><trip id="262" type="default_017" depart="58149.65034964963" from="653473569#5" to="124812857#0" /><trip id="263" type="default_016" depart="58151.74825174753" from="25149219#1" to="104012170" /><trip id="264" type="default_017" depart="58153.84615384543" from="104010354" to="124812857#0" /><trip id="265" type="default_016" depart="58155.94405594333" from="201963537#1" to="104012170" /><trip id="266" type="default_016" depart="58158.04195804123" from="104010354" to="124812857#0" /><trip id="267" type="default_017" depart="58160.13986013913" from="201963537#1" to="104012170" /><trip id="268" type="default_016" depart="58162.237762237026" from="104010354" to="124812857#0" /><trip id="269" type="default_016" depart="58164.335664334925" from="201963537#1" to="104012170" /><trip id="270" type="default_016" depart="58166.433566432825" from="201963537#1" to="104012170" /><trip id="271" type="default_017" depart="58168.531468530724" from="104010354" to="124812857#0" /><trip id="272" type="random_016" depart="58170.62937062862" from="201963537#1" to="-653473569#5" /><trip id="273" type="default_017" depart="58172.72727272652" from="25149219#1" to="-653473569#5" /><trip id="274" type="default_016" depart="58174.82517482442" from="201963537#1" to="104012170" /><trip id="275" type="random_017" depart="58176.92307692232" from="653473569#5" to="124812857#0" /><trip id="276" type="random_016" depart="58179.02097902022" from="653473569#5" to="124812857#0" /><trip id="277" type="default_017" depart="58181.11888111812" from="104010354" to="124812857#0" /><trip id="278" type="default_017" depart="58183.2167832160