<routes xmlns:xsi="http://www.w3.org/2001/XMLSchema-instance" xsi:noNamespaceSchemaLocation="http://sumo.dlr.de/xsd/routes_file.xsd">
	<vType id="pkw" vClass="passenger" speedDev="0.1" length="4.3" minGap="1.5" />
<trip id="0" type="pkw" depart="25200" from="-25168493" to="25168493" /><trip id="1" type="pkw" depart="25200.9" from="-297047309#0" to="23648008#2" /><trip id="2" type="pkw" depart="25201.800000000003" from="-186623965#18" to="-186623965#14" /><trip id="3" type="pkw" depart="25202.700000000004" from="22917421#3" to="8716807#1" /><trip id="4" type="pkw" depart="25203.600000000006" from="23283470#0" to="28675510#7" /><trip id="5" type="pkw" depart="25204.500000000007" from="22917421#3" to="28675510#7" /><trip id="6" type="pkw" depart="25205.40000000001" from="-23283579#1" to="-186623965#14" /><trip id="7" type="pkw" depart="25206.30000000001" from="-28675510#11" to="-186623965#14" /><trip id="8" type="pkw" depart="25207.20000000001" from="-23283579#0" to="-22917421#4" /><trip id="9" type="pkw" depart="25208.100000000013" from="-186623965#18" to="42925825#0" /><trip id="10" type="pkw" depart="25209.000000000015" from="-186623965#18" to="-186623965#14" /><trip id="11" type="pkw" depart="25209.900000000016" from="297047310#4" to="28675510#7" /><trip id="12" type="pkw" depart="25210.800000000017" from="-4936412" to="8716827#0" /><trip id="13" type="pkw" depart="25211.70000000002" from="133081987#3" to="297047309#0" /><trip id="14" type="pkw" depart="25212.60000000002" from="297047310#4" to="186623965#17" /><trip id="15" type="pkw" depart="25213.500000000022" from="-23283579#0" to="28675510#7" /><trip id="16" type="pkw" depart="25214.400000000023" from="-42925825#2" to="-186623965#14" /><trip id="17" type="pkw" depart="25215.300000000025" from="186623965#9" to="186623965#17" /><trip id="18" type="pkw" depart="25216.200000000026" from="23283470#0" to="42925825#0" /><trip id="19" type="pkw" depart="25217.100000000028" from="160807420" to="23840972" /><trip id="20" type="pkw" depart="25218.00000000003" from="23840887#3" to="-186623965#14" /><trip id="21" type="pkw" depart="25218.90000000003" from="22959550#1" to="23283579#1" /><trip id="22" type="pkw" depart="25219.800000000032" from="24675285" to="-186623965#14" /><trip id="23" type="pkw" depart="25220.700000000033" from="-42925825#2" to="23283436" /><trip id="24" type="pkw" depart="25221.600000000035" from="-42925825#2" to="-186623965#14" /><trip id="25" type="pkw" depart="25222.500000000036" from="-23283579#1" to="297047309#0" /><trip id="26" type="pkw" depart="25223.400000000038" from="-42925825#2" to="297047309#0" /><trip id="27" type="pkw" depart="25224.30000000004" from="-186623965#18" to="-186623965#14" /><trip id="28" type="pkw" depart="25225.20000000004" from="-353069169#0" to="23283470#5" /><trip id="29" type="pkw" depart="25226.100000000042" from="-42925825#2" to="323450710#0" /><trip id="30" type="pkw" depart="25227.000000000044" from="-28675510#11" to="23285888#0" /><trip id="31" type="pkw" depart="25227.900000000045" from="-4936412" to="8716827#0" /><trip id="32" type="pkw" depart="25228.800000000047" from="22917421#3" to="-186623965#14" /><trip id="33" type="pkw" depart="25229.700000000048" from="-28675493" to="-186623965#14" /><trip id="34" type="pkw" depart="25230.60000000005" from="-186623965#18" to="186623965#17" /><trip id="35" type="pkw" depart="25231.50000000005" from="-186623965#18" to="-186623965#14" /><trip id="36" type="pkw" depart="25232.400000000052" from="22917421#3" to="-186623965#14" /><trip id="37" type="pkw" depart="25233.300000000054" from="24675285" to="23283435#1" /><trip id="38" type="pkw" depart="25234.200000000055" from="42925825#0" to="42925825#0" /><trip id="39" type="pkw" depart="25235.100000000057" from="28675493" to="323450710#0" /><trip id="40" type="pkw" depart="25236.00000000006" from="24675285" to="23840972" /><trip id="41" type="pkw" depart="25236.90000000006" from="-23283579#1" to="23283470#5" /><trip id="42" type="pkw" depart="25237.80000000006" from="-186623965#18" to="42925825#0" /><trip id="43" type="pkw" depart="25238.700000000063" from="-23283579#1" to="186623965#17" /><trip id="44" type="pkw" depart="25239.600000000064" from="-186623965#18" to="186623965#17" /><trip id="45" type="pkw" depart="25240.500000000065" from="22917421#3" to="23283436" /><trip id="46" type="pkw" depart="25241.400000000067" from="-186623965#18" to="-186623965#14" /><trip id="47" type="pkw" depart="25242.30000000007" from="186623965#9" to="-23840935" /><trip id="48" type="pkw" depart="25243.20000000007" from="-297047309#0" to="297047309#0" /><trip id="49" type="pkw" depart="25244.10000000007" from="-42925825#2" to="42925825#0" /><trip id="50" type="pkw" depart="25245.000000000073" from="-28675510#11" to="297047309#0" /><trip id="51" type="pkw" depart="25245.900000000074" from="-23283579#1" to="23647126" /><trip id="52" type="pkw" depart="25246.800000000076" from="-28675510#5" to="28675510#7" /><trip id="53" type="pkw" depart="25247.700000000077" from="23647126" to="186623965#17" /><trip id="54" type="pkw" depart="25248.60000000008" from="23840887#3" to="-186623965#14" /><trip id="55" type="pkw" depart="25249.50000000008" from="-23283579#1" to="8716827#0" /><trip id="56" type="pkw" depart="25250.40000000008" from="160807420" to="8716827#0" /><trip id="57" type="pkw" depart="25251.300000000083" from="23283470#0" to="28675510#7" /><trip id="58" type="pkw" depart="25252.200000000084" from="-42925825#2" to="60909001" /><trip id="59" type="pkw" depart="25253.100000000086" from="-23840888#0" to="-186623965#14" /><trip id="60" type="pkw" depart="25254.000000000087" from="155723703#0" to="155723703#0" /><trip id="61" type="pkw" depart="25254.90000000009" from="22917421#3" to="297047309#0" /><trip id="62" type="pkw" depart="25255.80000000009" from="22917421#3" to="186623965#17" /><trip id="63" type="pkw" depart="25256.70000000009" from="186623965#9" to="186623965#17" /><trip id="64" type="pkw" depart="25257.600000000093" from="-186623965#18" to="-186623965#14" /><trip id="65" type="pkw" depart="25258.500000000095" from="22917421#3" to="186623965#17" /><trip id="66" type="pkw" depart="25259.400000000096" from="24675285" to="22959552#0" /><trip id="67" type="pkw" depart="25260.300000000097" from="23647118" to="28675510#7" /><trip id="68" type="pkw" depart="25261.2000000001" from="-28675510#11" to="-186623965#14" /><trip id="69" type="pkw" depart="25262.1000000001" from="-323450710#0" to="-28675493" /><trip id="70" type="pkw" depart="25263.000000000102" from="-186623965#18" to="297047309#0" /><trip id="71" type="pkw" depart="25263.900000000103" from="22917421#3" to="28675510#7" /><trip id="72" type="pkw" depart="25264.800000000105" from="-353069169#0" to="-186623965#14" /><trip id="73" type="pkw" depart="25265.700000000106" from="-23283579#1" to="-23283579#0" /><trip id="74" type="pkw" depart="25266.600000000108" from="-186623965#18" to="-22917421#4" /><trip id="75" type="pkw" depart="25267.50000000011" from="186623965#9" to="186623965#17" /><trip id="76" type="pkw" depart="25268.40000000011" from="-28675510#11" to="42925825#0" /><trip id="77" type="pkw" depart="25269.300000000112" from="-42925825#2" to="-186623965#14" /><trip id="78" type="pkw" depart="25270.200000000114" from="-42925825#2" to="-186623965#14" /><trip id="79" type="pkw" depart="25271.100000000115" from="23283470#0" to="186623965#17" /><trip id="80" type="pkw" depart="25272.000000000116" from="24675285" to="23647126" /><trip id="81" type="pkw" depart="25272.900000000118" from="-23283579#1" to="23283579#1" /><trip id="82" type="pkw" depart="25273.80000000012" from="-23283579#1" to="-186623965#14" /><trip id="83" type="pkw" depart="25274.70000000012" from="8716807#1" to="155723703#0" /><trip id="84" type="pkw" depart="25275.600000000122" from="-42925825#2" to="-186623965#14" /><trip id="85" type="pkw" depart="25276.500000000124" from="-23283579#1" to="-28675493" /><trip id="86" type="pkw" depart="25277.400000000125" from="160807420" to="23283436" /><trip id="87" type="pkw" depart="25278.300000000127" from="-23283579#1" to="8716827#0" /><trip id="88" type="pkw" depart="25279.200000000128" from="-186623965#18" to="42925825#0" /><trip id="89" type="pkw" depart="25280.10000000013" from="23283470#5" to="22959552#0" /><trip id="90" type="pkw" depart="25281.00000000013" from="-42925825#2" to="-186623965#14" /><trip id="91" type="pkw" depart="25281.900000000132" from="23283473" to="8716827#0" /><trip id="92" type="pkw" depart="25282.800000000134" from="-186623965#18" to="-186623965#14" /><trip id="93" type="pkw" depart="25283.700000000135" from="-186623965#18" to="132042183" /><trip id="94" type="pkw" depart="25284.600000000137" from="186623965#9" to="186623965#17" /><trip id="95" type="pkw" depart="25285.50000000014" from="-186623965#18" to="4936412" /><trip id="96" type="pkw" depart="25286.40000000014" from="23647118" to="-186623965#14" /><trip id="97" type="pkw" depart="25287.30000000014" from="-4936412" to="-28675510#0" /><trip id="98" type="pkw" depart="25288.200000000143" from="-42925825#2" to="42925825#0" /><trip id="99" type="pkw" depart="25289.100000000144" from="-186623965#18" to="8716827#0" /><trip id="100" type="pkw" depart="25290.000000000146" from="-28675510#11" to="297047309#0" /><trip id="101" type="pkw" depart="25290.900000000147" from="-323450710#0" to="-23283580#1" /><trip id="102" type="pkw" depart="25291.80000000015" from="23840713#2" to="42925825#0" /><trip id="103" type="pkw" depart="25292.70000000015" from="-4936412" to="8716827#0" /><trip id="104" type="pkw" depart="25293.60000000015" from="22917421#3" to="28675493" /><trip id="105" type="pkw" depart="25294.500000000153" from="-42925825#2" to="-186623965#14" /><trip id="106" type="pkw" depart="25295.400000000154" from="-42925825#2" to="-186623965#14" /><trip id="107" type="pkw" depart="25296.300000000156" from="24675285" to="23840972" /><trip id="108" type="pkw" depart="25297.200000000157" from="-186623965#16" to="186623965#17" /><trip id="109" type="pkw" depart="25298.10000000016" from="-42925825#2" to="-186623965#14" /><trip id="110" type="pkw" depart="25299.00000000016" from="-186623965#18" to="-186623965#14" /><trip id="111" type="pkw" depart="25299.90000000016" from="-186623965#18" to="-186623965#14" /><trip id="112" type="pkw" depart="25300.800000000163" from="23283470#0" to="23283579#1" /><trip id="113" type="pkw" depart="25301.700000000164" from="-23283579#1" to="8716827#0" /><trip id="114" type="pkw" depart="25302.600000000166" from="-28675510#11" to="-186623965#14" /><trip id="115" type="pkw" depart="25303.500000000167" from="23283579#1" to="23283579#1" /><trip id="116" type="pkw" depart="25304.40000000017" from="-4936412" to="8716827#0" /><trip id="117" type="pkw" depart="25305.30000000017" from="-186623965#18" to="186623965#17" /><trip id="118" type="pkw" depart="25306.20000000017" from="-28675510#11" to="-186623965#14" /><trip id="119" type="pkw" depart="25307.100000000173" from="-28675510#11" to="23283580#0" /><trip id="120" type="pkw" depart="25308.000000000175" from="23283580#0" to="23286179#2" /><trip id="121" type="pkw" depart="25308.900000000176" from="-4936412" to="-23686088#0" /><trip id="122" type="pkw" depart="25309.800000000178" from="290365598#0" to="-186623965#14" /><trip id="123" type="pkw" depart="25310.70000000018" from="-23283579#1" to="297047309#0" /><trip id="124" type="pkw" depart="25311.60000000018" from="22917421#3" to="186623965#17" /><trip id="125" type="pkw" depart="25312.500000000182" from="23840887#3" to="-186623965#14" /><trip id="126" type="pkw" depart="25313.400000000183" from="-186623965#16" to="186623965#17" /><trip id="127" type="pkw" depart="25314.300000000185" from="23283469" to="8716827#0" /><trip id="128" type="pkw" depart="25315.200000000186" from="-186623965#18" to="-186623965#14" /><trip id="129" type="pkw" depart="25316.100000000188" from="297047309#0" to="23283579#1" /><trip id="130" type="pkw" depart="25317.00000000019" from="23647126" to="297047309#0" /><trip id="131" type="pkw" depart="25317.90000000019" from="28691861" to="186623965#17" /><trip id="132" type="pkw" depart="25318.800000000192" from="-186623965#18" to="-28675493" /><trip id="133" type="pkw" depart="25319.700000000194" from="-28675510#11" to="297047309#0" /><trip id="134" type="pkw" depart="25320.600000000195" from="-28675510#11" to="8716807#1" /><trip id="135" type="pkw" depart="25321.500000000196" from="-42925825#2" to="186623965#17" /><trip id="136" type="pkw" depart="25322.400000000198" from="22917421#3" to="-23840972" /><trip id="137" type="pkw" depart="25323.3000000002" from="23286180" to="8716827#0" /><trip id="138" type="pkw" depart="25324.2000000002" from="-42925825#2" to="-186623965#14" /><trip id="139" type="pkw" depart="25325.100000000202" from="23283579#1" to="23283579#1" /><trip id="140" type="pkw" depart="25326.000000000204" from="-186623965#18" to="323450710#0" /><trip id="141" type="pkw" depart="25326.900000000205" from="24675285" to="23840971" /><trip id="142" type="pkw" depart="25327.800000000207" from="-42925825#2" to="-186623965#14" /><trip id="143" type="pkw" depart="25328.700000000208" from="-23283579#1" to="297047309#0" /><trip id="144" type="pkw" depart="25329.60000000021" from="186623965#9" to="186623965#17" /><trip id="145" type="pkw" depart="25330.50000000021" from="-297047309#0" to="-186623965#14" /><trip id="146" type="pkw" depart="25331.400000000212" from="-42925825#2" to="-186623965#14" /><trip id="147" type="pkw" depart="25332.300000000214" from="-186623965#18" to="-22917421#4" /><trip id="148" type="pkw" depart="25333.200000000215" from="-28675510#11" to="42925825#0" /><trip id="149" type="pkw" depart="25334.100000000217" from="-23283579#1" to="25166682#0" /><trip id="150" type="pkw" depart="25335.00000000022" from="22917421#3" to="186623965#17" /><trip id="151" type="pkw" depart="25335.90000000022" from="8716807#1" to="323416262" /><trip id="152" type="pkw" depart="25336.80000000022" from="-23283579#1" to="297047309#0" /><trip id="153" type="pkw" depart="25337.700000000223" from="23283579#1" to="28675510#7" /><trip id="154" type="pkw" depart="25338.600000000224" from="-323450710#0" to="-23283580#1" /><trip id="155" type="pkw" depart="25339.500000000226" from="25166682#0" to="28675510#7" /><trip id="156" type="pkw" depart="25340.400000000227" from="-23283579#1" to="28675510#7" /><trip id="157" type="pkw" depart="25341.30000000023" from="-186623965#18" to="-186623965#14" /><trip id="158" type="pkw" depart="25342.20000000023" from="-186623965#18" to="-186623965#14" /><trip id="159" type="pkw" depart="25343.10000000023" from="-186623965#18" to="-22917421#4" /><trip id="160" type="pkw" depart="25344.000000000233" from="22917421#3" to="186623965#17" /><trip id="161" type="pkw" depart="25344.900000000234" from="23648008#0" to="28675510#7" /><trip id="162" type="pkw" depart="25345.800000000236" from="-186623965#18" to="-186623965#14" /><trip id="163" type="pkw" depart="25346.700000000237" from="-23283579#1" to="23283579#1" /><trip id="164" type="pkw" depart="25347.60000000024" from="23283473" to="8716827#0" /><trip id="165" type="pkw" depart="25348.50000000024" from="-4936412" to="8716827#0" /><trip id="166" type="pkw" depart="25349.40000000024" from="-23283579#1" to="42925825#0" /><trip id="167" type="pkw" depart="25350.300000000243" from="8716807#1" to="42925825#0" /><trip id="168" type="pkw" depart="25351.200000000244" from="-23648008#3" to="25166682#0" /><trip id="169" type="pkw" depart="25352.100000000246" from="23840887#3" to="-186623965#14" /><trip id="170" type="pkw" depart="25353.000000000247" from="-28675510#11" to="-186623965#14" /><trip id="171" type="pkw" depart="25353.90000000025" from="-28675510#11" to="-186623965#14" /><trip id="172" type="pkw" depart="25354.80000000025" from="-186623965#18" to="-186623965#14" /><trip id="173" type="pkw" depart="25355.70000000025" from="22917421#3" to="-22917421#4" /><trip id="174" type="pkw" depart="25356.600000000253" from="-42925825#2" to="-186623965#14" /><trip id="175" type="pkw" depart="25357.500000000255" from="-186623965#18" to="-186623965#14" /><trip id="176" type="pkw" depart="25358.400000000256" from="25166682#0" to="28675510#7" /><trip id="177" type="pkw" depart="25359.300000000258" from="186623965#9" to="42925825#0" /><trip id="178" type="pkw" depart="25360.20000000026" from="-353069169#0" to="23283470#5" /><trip id="179" type="pkw" depart="25361.10000000026" from="-23648008#1" to="323450710#0" /><trip id="180" type="pkw" depart="25362.000000000262" from="22959552#1" to="297047309#0" /><trip id="181" type="pkw" depart="25362.900000000263" from="22959550#0" to="297047309#0" /><trip id="182" type="pkw" depart="25363.800000000265" from="-353069169#0" to="323416262" /><trip id="183" type="pkw" depart="25364.700000000266" from="-186623965#18" to="-22917421#4" /><trip id="184" type="pkw" depart="25365.600000000268" from="-23283579#1" to="-297047309#0" /><trip id="185" type="pkw" depart="25366.50000000027" from="186623965#9" to="186623965#17" /><trip id="186" type="pkw" depart="25367.40000000027" from="23840887#3" to="-186623965#14" /><trip id="187" type="pkw" depart="25368.300000000272" from="-186623965#18" to="-186623965#14" /><trip id="188" type="pkw" depart="25369.200000000274" from="22959552#4" to="186623965#17" /><trip id="189" type="pkw" depart="25370.100000000275" from="-28675510#0" to="28675510#7" /><trip id="190" type="pkw" depart="25371.000000000276" from="-4936412" to="8716827#0" /><trip id="191" type="pkw" depart="25371.900000000278" from="-42925825#2" to="-186623965#14" /><trip id="192" type="pkw" depart="25372.80000000028" from="-42925825#2" to="297047309#0" /><trip id="193" type="pkw" depart="25373.70000000028" from="-297047309#0" to="23283579#1" /><trip id="194" type="pkw" depart="25374.600000000282" from="-23648008#3" to="28675510#7" /><trip id="195" type="pkw" depart="25375.500000000284" from="-323450710#0" to="-186623965#14" /><trip id="196" type="pkw" depart="25376.400000000285" from="24675285" to="28675510#7" /><trip id="197" type="pkw" depart="25377.300000000287" from="-186623965#18" to="-186623965#14" /><trip id="198" type="pkw" depart="25378.200000000288" from="23840887#3" to="-186623965#14" /><trip id="199" type="pkw" depart="25379.10000000029" from="-42925825#2" to="42925825#0" /><trip id="200" type="pkw" depart="25380.00000000029" from="22917421#3" to="-186623965#14" /><trip id="201" type="pkw" depart="25380.900000000292" from="22959550#0" to="297047309#0" /><trip id="202" type="pkw" depart="25381.800000000294" from="-186623965#18" to="-186623965#14" /><trip id="203" type="pkw" depart="25382.700000000295" from="160807420" to="8716827#0" /><trip id="204" type="pkw" depart="25383.600000000297" from="-25166682#0" to="23283579#1" /><trip id="205" type="pkw" depart="25384.5000000003" from="297047308" to="-186623965#14" /><trip id="206" type="pkw" depart="25385.4000000003" from="-186623965#18" to="-186623965#14" /><trip id="207" type="pkw" depart="25386.3000000003" from="-186623965#18" to="-186623965#14" /><trip id="208" type="pkw" depart="25387.200000000303" from="22917421#3" to="-186623965#14" /><trip id="209" type="pkw" depart="25388.100000000304" from="-23283579#1" to="-186623965#14" /><trip id="210" type="pkw" depart="25389.000000000306" from="-42925825#2" to="-186623965#14" /><trip id="211" type="pkw" depart="25389.900000000307" from="-4936412" to="8716827#0" /><trip id="212" type="pkw" depart="25390.80000000031" from="-23283579#1" to="8716827#0" /><trip id="213" type="pkw" depart="25391.70000000031" from="22959552#1" to="297047309#0" /><trip id="214" type="pkw" depart="25392.60000000031" from="-23283579#1" to="42925825#0" /><trip id="215" type="pkw" depart="25393.500000000313" from="186623965#9" to="186623965#17" /><trip id="216" type="pkw" depart="25394.400000000314" from="42925825#0" to="42925825#0" /><trip id="217" type="pkw" depart="25395.300000000316" from="-28675510#11" to="186623965#17" /><trip id="218" type="pkw" depart="25396.200000000317" from="-42925825#2" to="23840972" /><trip id="219" type="pkw" depart="25397.10000000032" from="-23840712#0" to="297047309#0" /><trip id="220" type="pkw" depart="25398.00000000032" from="-42925825#2" to="-186623965#14" /><trip id="221" type="pkw" depart="25398.90000000032" from="-28675510#11" to="23283579#1" /><trip id="222" type="pkw" depart="25399.800000000323" from="-28675510#11" to="23840972" /><trip id="223" type="pkw" depart="25400.700000000325" from="25166682#0" to="28675510#7" /><trip id="224" type="pkw" depart="25401.600000000326" from="-42925825#2" to="-186623965#14" /><trip id="225" type="pkw" depart="25402.500000000327" from="-28675510#11" to="-186623965#14" /><trip id="226" type="pkw" depart="25403.40000000033" from="-42925825#2" to="-297047310#2" /><trip id="227" type="pkw" depart="25404.30000000033" from="23840971" to="28675510#7" /><trip id="228" type="pkw" depart="25405.20000000033" from="-23283579#1" to="42925825#0" /><trip id="229" type="pkw" depart="25406.100000000333" from="23283470#0" to="42925825#0" /><trip id="230" type="pkw" depart="25407.000000000335" from="-42925825#2" to="8716807#1" /><trip id="231" type="pkw" depart="25407.900000000336" from="24675285" to="23840972" /><trip id="232" type="pkw" depart="25408.800000000338" from="22917421#3" to="-23840972" /><trip id="233" type="pkw" depart="25409.70000000034" from="24675285" to="8716827#0" /><trip id="234" type="pkw" depart="25410.60000000034" from="-42925825#2" to="-186623965#14" /><trip id="235" type="pkw" depart="25411.500000000342" from="-23283579#1" to="297047309#0" /><trip id="236" type="pkw" depart="25412.400000000343" from="186623965#9" to="-23840935" /><trip id="237" type="pkw" depart="25413.300000000345" from="-42925825#2" to="-186623965#14" /><trip id="238" type="pkw" depart="25414.200000000346" from="-23840712#0" to="28675510#7" /><trip id="239" type="pkw" depart="25415.100000000348" from="23283579#1" to="23283579#1" /><trip id="240" type="pkw" depart="25416.00000000035" from="-297047309#0" to="28675510#7" /><trip id="241" type="pkw" depart="25416.90000000035" from="23283579#1" to="23283579#1" /><trip id="242" type="pkw" depart="25417.800000000352" from="-25166682#0" to="28675510#7" /><trip id="243" type="pkw" depart="25418.700000000354" from="160807420" to="23283436" /><trip id="244" type="pkw" depart="25419.600000000355" from="-186623965#18" to="-28675494#1" /><trip id="245" type="pkw" depart="25420.500000000357" from="-23283579#1" to="-297047309#0" /><trip id="246" type="pkw" depart="25421.400000000358" from="-186623965#18" to="-186623965#14" /><trip id="247" type="pkw" depart="25422.30000000036" from="23283580#0" to="28675510#7" /><trip id="248" type="pkw" depart="25423.20000000036" from="-23283579#1" to="-186623965#14" /><trip id="249" type="pkw" depart="25424.100000000362" from="-297047309#0" to="28675510#7" /><trip id="250" type="pkw" depart="25425.000000000364" from="-186623965#18" to="-186623965#14" /><trip id="251" type="pkw" depart="25425.900000000365" from="-323450710#0" to="186623965#17" /><trip id="252" type="pkw" depart="25426.800000000367" from="-297047307" to="22959475#0" /><trip id="253" type="pkw" depart="25427.700000000368" from="-25168493" to="25168493" /><trip id="254" type="pkw" depart="25428.60000000037" from="-42925825#2" to="-186623965#14" /><trip id="255" type="pkw" depart="25429.50000000037" from="-23283579#1" to="23286180" /><trip id="256" type="pkw" depart="25430.400000000373" from="-23283579#1" to="-186623965#14" /><trip id="257" type="pkw" depart="25431.300000000374" from="-4936412" to="8716827#0" /><trip id="258" type="pkw" depart="25432.200000000375" from="-186623965#18" to="-186623965#14" /><trip id="259" type="pkw" depart="25433.100000000377" from="-23283579#1" to="23283579#1" /><trip id="260" type="pkw" depart="25434.00000000038" from="-42925825#2" to="28675510#0" /><trip id="261" type="pkw" depart="25434.90000000038" from="-4936412" to="8716827#0" /><trip id="262" type="pkw" depart="25435.80000000038" from="-23840935" to="186623965#17" /><trip id="263" type="pkw" depart="25436.700000000383" from="186623965#9" to="-186623965#14" /><trip id="264" type="pkw" depart="25437.600000000384" from="-42925825#2" to="-186623965#14" /><trip id="265" type="pkw" depart="25438.500000000386" from="-186623965#18" to="-186623965#14" /><trip id="266" type="pkw" depart="25439.400000000387" from="-323450710#0" to="-186623965#14" /><trip id="267" type="pkw" depart="25440.30000000039" from="-186623965#18" to="-186623965#14" /><trip id="268" type="pkw" depart="25441.20000000039" from="-28675493" to="-186623965#14" /><trip id="269" type="pkw" depart="25442.10000000039" from="-186623965#18" to="-186623965#14" /><trip id="270" type="pkw" depart="25443.000000000393" from="22917421#3" to="186623965#17" /><trip id="271" type="pkw" depart="25443.900000000394" from="-186623965#18" to="28675510#4" /><trip id="272" type="pkw" depart="25444.800000000396" from="-186623965#18" to="297047309#0" /><trip id="273" type="pkw" depart="25445.700000000397" from="186623965#9" to="186623965#17" /><trip id="274" type="pkw" depart="25446.6000000004" from="186623965#9" to="-186623965#16" /><trip id="275" type="pkw" depart="25447.5000000004" from="-28675510#11" to="23283580#0" /><trip id="276" type="pkw" depart="25448.4000000004" from="22917421#3" to="23283470#2" /><trip id="277" type="pkw" depart="25449.300000000403" from="-42925825#2" to="-186623965#14" /><trip id="278" type="pkw" depart="25450.200000000405" from="23283473" to="155723703#0" /><trip id="279" type="pkw" depart="25451.100000000406" from="-186623965#18" to="297047309#0" /><trip id="280" type="pkw" depart="25452.000000000407" from="-42925825#2" to="-186623965#14" /><trip id="281" type="pkw" depart="25452.90000000041" from="-186623965#18" to="-186623965#14" /><trip id="282" type="pkw" depart="25453.80000000041" from="-23283579#1" to="4936412" /><trip id="283" type="pkw" depart="25454.700000000412" from="-28675510#11" to="28675510#7" /><trip id="284" type="pkw" depart="25455.600000000413" from="-186623965#18" to="-186623965#14" /><trip id="285" type="pkw" depart="25456.500000000415" from="-23283579#1" to="297047309#0" /><trip id="286" type="pkw" depart="25457.400000000416" from="23686088#0" to="4936412" /><trip id="287" type="pkw" depart="25458.300000000418" from="-186623965#18" to="-186623965#14" /><trip id="288" type="pkw" depart="25459.20000000042" from="-42925825#2" to="-186623965#14" /><trip id="289" type="pkw" depart="25460.10000000042" from="-4936412" to="23283436" /><trip id="290" type="pkw" depart="25461.000000000422" from="-186623965#18" to="297047309#0" /><trip id="291" type="pkw" depart="25461.900000000423" from="-186623965#18" to="323450710#0" /><trip id="292" type="pkw" depart="25462.800000000425" from="22917421#3" to="186623965#17" /><trip id="293" type="pkw" depart="25463.700000000426" from="290365598#0" to="-186623965#14" /><trip id="294" type="pkw" depart="25464.600000000428" from="24675285" to="-186623965#14" /><trip id="295" type="pkw" depart="25465.50000000043" from="-186623965#18" to="-186623965#14" /><trip id="296" type="pkw" depart="25466.40000000043" from="-42925825#2" to="-186623965#14" /><trip id="297" type="pkw" depart="25467.300000000432" from="-23283579#1" to="42925825#0" /><trip id="298" type="pkw" depart="25468.200000000434" from="-28675510#11" to="28675510#7" /><trip id="299" type="pkw" depart="25469.100000000435" from="132042183" to="-23283472#2" /><trip id="300" type="pkw" depart="25470.000000000437" from="22917421#3" to="186623965#17" /><trip id="301" type="pkw" depart="25470.900000000438" from="-4936412" to="23283436" /><trip id="302" type="pkw" depart="25471.80000000044" from="-28675510#11" to="-186623965#14" /><trip id="303" type="pkw" depart="25472.70000000044" from="186623965#9" to="-186623965#14" /><trip id="304" type="pkw" depart="25473.600000000442" from="-353069169#0" to="323416262" /><trip id="305" type="pkw" depart="25474.500000000444" from="60909001" to="23286179#2" /><trip id="306" type="pkw" depart="25475.400000000445" from="-42925825#2" to="23647126" /><trip id="307" type="pkw" depart="25476.300000000447" from="22917421#3" to="-186623965#14" /><trip id="308" type="pkw" depart="25477.20000000045" from="-42925825#2" to="-186623965#14" /><trip id="309" type="pkw" depart="25478.10000000045" from="22917421#3" to="42925825#0" /><trip id="310" type="pkw" depart="25479.00000000045" from="133081987#3" to="297047309#0" /><trip id="311" type="pkw" depart="25479.900000000453" from="-186623965#18" to="-186623965#14" /><trip id="312" type="pkw" depart="25480.800000000454" from="23840712#1" to="297047309#0" /><trip id="313" type="pkw" depart="25481.700000000455" from="-186623965#18" to="-22917421#4" /><trip id="314" type="pkw" depart="25482.600000000457" from="-28675510#11" to="-186623965#14" /><trip id="315" type="pkw" depart="25483.50000000046" from="-323450710#0" to="-28675493" /><trip id="316" type="pkw" depart="25484.40000000046" from="22917421#3" to="28675510#7" /><trip id="317" type="pkw" depart="25485.30000000046" from="-23283579#1" to="28675510#4" /><trip id="318" type="pkw" depart="25486.200000000463" from="-297047309#0" to="28675510#7" /><trip id="319" type="pkw" depart="25487.100000000464" from="-28675510#11" to="-186623965#14" /><trip id="320" type="pkw" depart="25488.000000000466" from="186623965#9" to="28675510#7" /><trip id="321" type="pkw" depart="25488.900000000467" from="-42925825#2" to="-186623965#14" /><trip id="322" type="pkw" depart="25489.80000000047" from="23283470#5" to="22959552#0" /><trip id="323" type="pkw" depart="25490.70000000047" from="22917421#3" to="186623965#17" /><trip id="324" type="pkw" depart="25491.60000000047" from="-186623965#18" to="186623965#17" /><trip id="325" type="pkw" depart="25492.500000000473" from="-28675510#11" to="-186623965#14" /><trip id="326" type="pkw" depart="25493.400000000474" from="-42925825#2" to="-186623965#14"