<routes xmlns:xsi="http://www.w3.org/2001/XMLSchema-instance" xsi:noNamespaceSchemaLocation="http://sumo.dlr.de/xsd/routes_file.xsd">
	<vType id="pkw" vClass="passenger" speedDev="0.1" length="4.3" minGap="1.5" />
<trip id="0" type="pkw" depart="25200" from="-323450710#0" to="28675510#7" /><trip id="1" type="pkw" depart="25201.759530791787" from="-28675510#11" to="297047310#4" /><trip id="2" type="pkw" depart="25203.519061583575" from="160807420" to="23283436" /><trip id="3" type="pkw" depart="25205.27859237536" from="-186623965#18" to="8716827#0" /><trip id="4" type="pkw" depart="25207.03812316715" from="-186623965#18" to="42925825#0" /><trip id="5" type="pkw" depart="25208.797653958936" from="23283580#0" to="23286179#2" /><trip id="6" type="pkw" depart="25210.557184750724" from="-23283579#0" to="323416262" /><trip id="7" type="pkw" depart="25212.31671554251" from="-186623965#18" to="23840972" /><trip id="8" type="pkw" depart="25214.076246334298" from="23283474" to="22959552#0" /><trip id="9" type="pkw" depart="25215.835777126085" from="-186623965#18" to="-186623965#14" /><trip id="10" type="pkw" depart="25217.595307917873" from="-42925825#2" to="-186623965#14" /><trip id="11" type="pkw" depart="25219.35483870966" from="-42925825#2" to="297047309#0" /><trip id="12" type="pkw" depart="25221.114369501447" from="186623965#9" to="186623965#17" /><trip id="13" type="pkw" depart="25222.873900293234" from="28691861" to="-22917421#4" /><trip id="14" type="pkw" depart="25224.63343108502" from="-186623965#18" to="-186623965#14" /><trip id="15" type="pkw" depart="25226.39296187681" from="-42925825#2" to="-186623965#14" /><trip id="16" type="pkw" depart="25228.152492668596" from="23283470#3" to="23283579#1" /><trip id="17" type="pkw" depart="25229.912023460383" from="-23283579#1" to="297047309#0" /><trip id="18" type="pkw" depart="25231.67155425217" from="-23283579#1" to="297047309#0" /><trip id="19" type="pkw" depart="25233.431085043958" from="-186623965#18" to="-186623965#14" /><trip id="20" type="pkw" depart="25235.190615835745" from="-8716807#5" to="297047309#0" /><trip id="21" type="pkw" depart="25236.950146627532" from="-23283579#0" to="23840888#0" /><trip id="22" type="pkw" depart="25238.70967741932" from="8716807#1" to="28675510#7" /><trip id="23" type="pkw" depart="25240.469208211107" from="-4936412" to="155723703#0" /><trip id="24" type="pkw" depart="25242.228739002894" from="186623965#9" to="28675510#7" /><trip id="25" type="pkw" depart="25243.98826979468" from="-42925825#2" to="-186623965#14" /><trip id="26" type="pkw" depart="25245.74780058647" from="23283579#1" to="23283579#1" /><trip id="27" type="pkw" depart="25247.507331378256" from="186623965#9" to="42925825#0" /><trip id="28" type="pkw" depart="25249.266862170043" from="186623965#9" to="186623965#17" /><trip id="29" type="pkw" depart="25251.02639296183" from="-186623965#18" to="-186623965#14" /><trip id="30" type="pkw" depart="25252.785923753618" from="-186623965#18" to="-186623965#14" /><trip id="31" type="pkw" depart="25254.545454545405" from="186623965#17" to="28675510#7" /><trip id="32" type="pkw" depart="25256.304985337192" from="23283580#0" to="-186623965#14" /><trip id="33" type="pkw" depart="25258.06451612898" from="8716807#1" to="28675510#7" /><trip id="34" type="pkw" depart="25259.824046920767" from="-42925825#2" to="-186623965#14" /><trip id="35" type="pkw" depart="25261.583577712554" from="-186623965#18" to="-186623965#14" /><trip id="36" type="pkw" depart="25263.34310850434" from="-42925825#2" to="-186623965#14" /><trip id="37" type="pkw" depart="25265.10263929613" from="-42925825#2" to="-23840972" /><trip id="38" type="pkw" depart="25266.862170087916" from="-42925825#2" to="-186623965#14" /><trip id="39" type="pkw" depart="25268.621700879703" from="-23283579#1" to="323450710#0" /><trip id="40" type="pkw" depart="25270.38123167149" from="160807420" to="8716827#0" /><trip id="41" type="pkw" depart="25272.140762463277" from="323450710#0" to="323450710#0" /><trip id="42" type="pkw" depart="25273.900293255065" from="-28675510#11" to="-186623965#14" /><trip id="43" type="pkw" depart="25275.659824046852" from="24675285" to="23283436" /><trip id="44" type="pkw" depart="25277.41935483864" from="-323450710#0" to="186623965#17" /><trip id="45" type="pkw" depart="25279.178885630427" from="186623965#9" to="186623965#17" /><trip id="46" type="pkw" depart="25280.938416422214" from="-25168493" to="25168493" /><trip id="47" type="pkw" depart="25282.697947214" from="-28675510#11" to="186623965#17" /><trip id="48" type="pkw" depart="25284.45747800579" from="-186623965#18" to="-186623965#14" /><trip id="49" type="pkw" depart="25286.217008797576" from="-23283579#1" to="8716827#0" /><trip id="50" type="pkw" depart="25287.976539589363" from="-28675510#11" to="-186623965#14" /><trip id="51" type="pkw" depart="25289.73607038115" from="22917421#3" to="28675510#7" /><trip id="52" type="pkw" depart="25291.495601172937" from="133081987#3" to="28675510#7" /><trip id="53" type="pkw" depart="25293.255131964725" from="-42925825#2" to="-186623965#14" /><trip id="54" type="pkw" depart="25295.014662756512" from="186623965#9" to="186623965#17" /><trip id="55" type="pkw" depart="25296.7741935483" from="-186623965#18" to="-186623965#14" /><trip id="56" type="pkw" depart="25298.533724340086" from="-42925825#2" to="42925825#0" /><trip id="57" type="pkw" depart="25300.293255131874" from="-323450710#0" to="28675510#7" /><trip id="58" type="pkw" depart="25302.05278592366" from="-23283579#1" to="8716827#0" /><trip id="59" type="pkw" depart="25303.812316715448" from="-42925825#2" to="23283436" /><trip id="60" type="pkw" depart="25305.571847507235" from="-42925825#2" to="-186623965#14" /><trip id="61" type="pkw" depart="25307.331378299023" from="-23283579#1" to="186623965#17" /><trip id="62" type="pkw" depart="25309.09090909081" from="23840888#1" to="23283579#1" /><trip id="63" type="pkw" depart="25310.850439882597" from="-186623965#18" to="-186623965#14" /><trip id="64" type="pkw" depart="25312.609970674384" from="-42925825#2" to="-186623965#14" /><trip id="65" type="pkw" depart="25314.36950146617" from="-4936412" to="8716827#0" /><trip id="66" type="pkw" depart="25316.12903225796" from="-186623965#18" to="-186623965#14" /><trip id="67" type="pkw" depart="25317.888563049746" from="-25166682#0" to="28675510#7" /><trip id="68" type="pkw" depart="25319.648093841533" from="-186623965#18" to="-186623965#14" /><trip id="69" type="pkw" depart="25321.40762463332" from="-23283579#1" to="323450710#0" /><trip id="70" type="pkw" depart="25323.167155425108" from="-4936412" to="8716827#0" /><trip id="71" type="pkw" depart="25324.926686216895" from="24675285" to="22959552#0" /><trip id="72" type="pkw" depart="25326.686217008682" from="-23283579#0" to="28675510#7" /><trip id="73" type="pkw" depart="25328.44574780047" from="155723703#0" to="155723703#0" /><trip id="74" type="pkw" depart="25330.205278592257" from="25166682#0" to="323450710#0" /><trip id="75" type="pkw" depart="25331.964809384044" from="23840972" to="28675510#7" /><trip id="76" type="pkw" depart="25333.72434017583" from="-186623965#18" to="-186623965#14" /><trip id="77" type="pkw" depart="25335.48387096762" from="186623965#9" to="155600123#0" /><trip id="78" type="pkw" depart="25337.243401759406" from="23283579#1" to="23283579#1" /><trip id="79" type="pkw" depart="25339.002932551193" from="24675285" to="23283435#1" /><trip id="80" type="pkw" depart="25340.76246334298" from="-186623965#18" to="-290365598#1" /><trip id="81" type="pkw" depart="25342.521994134768" from="-42925825#2" to="28675510#7" /><trip id="82" type="pkw" depart="25344.281524926555" from="-42925825#2" to="23283470#2" /><trip id="83" type="pkw" depart="25346.041055718342" from="22917421#3" to="186623965#17" /><trip id="84" type="pkw" depart="25347.80058651013" from="-23648008#3" to="42925825#0" /><trip id="85" type="pkw" depart="25349.560117301917" from="23647126" to="42925825#0" /><trip id="86" type="pkw" depart="25351.319648093704" from="-28675510#11" to="-186623965#14" /><trip id="87" type="pkw" depart="25353.07917888549" from="-186623965#18" to="-186623965#14" /><trip id="88" type="pkw" depart="25354.83870967728" from="-23283579#1" to="186623965#17" /><trip id="89" type="pkw" depart="25356.598240469066" from="297047308" to="297047309#0" /><trip id="90" type="pkw" depart="25358.357771260853" from="-42925825#2" to="23283579#0" /><trip id="91" type="pkw" depart="25360.11730205264" from="-23283579#1" to="-186623965#14" /><trip id="92" type="pkw" depart="25361.876832844428" from="-28675510#11" to="-186623965#14" /><trip id="93" type="pkw" depart="25363.636363636215" from="-186623965#18" to="-186623965#14" /><trip id="94" type="pkw" depart="25365.395894428002" from="-4936412" to="155723703#0" /><trip id="95" type="pkw" depart="25367.15542521979" from="23283580#0" to="28675510#7" /><trip id="96" type="pkw" depart="25368.914956011577" from="-23283579#1" to="8716807#1" /><trip id="97" type="pkw" depart="25370.674486803364" from="-23283579#1" to="297047309#0" /><trip id="98" type="pkw" depart="25372.43401759515" from="-186623965#18" to="-186623965#14" /><trip id="99" type="pkw" depart="25374.19354838694" from="-4936412" to="8716827#0" /><trip id="100" type="pkw" depart="25375.953079178726" from="-23283579#1" to="28675510#7" /><trip id="101" type="pkw" depart="25377.712609970513" from="160807420" to="155723703#0" /><trip id="102" type="pkw" depart="25379.4721407623" from="-23283579#1" to="28675510#7" /><trip id="103" type="pkw" depart="25381.231671554087" from="-186623965#18" to="-186623965#14" /><trip id="104" type="pkw" depart="25382.991202345875" from="-4936412" to="-186623965#14" /><trip id="105" type="pkw" depart="25384.750733137662" from="-186623965#18" to="-186623965#14" /><trip id="106" type="pkw" depart="25386.51026392945" from="186623965#9" to="42925825#0" /><trip id="107" type="pkw" depart="25388.269794721236" from="22917421#3" to="28675510#7" /><trip id="108" type="pkw" depart="25390.029325513024" from="-297047309#0" to="42925825#0" /><trip id="109" type="pkw" depart="25391.78885630481" from="-186623965#18" to="23840972" /><trip id="110" type="pkw" depart="25393.548387096598" from="23840712#1" to="-186623965#14" /><trip id="111" type="pkw" depart="25395.307917888385" from="23840712#1" to="28675510#7" /><trip id="112" type="pkw" depart="25397.067448680173" from="186623965#9" to="42925825#0" /><trip id="113" type="pkw" depart="25398.82697947196" from="-323450710#0" to="-28675493" /><trip id="114" type="pkw" depart="25400.586510263747" from="-42925825#2" to="-186623965#14" /><trip id="115" type="pkw" depart="25402.346041055534" from="186623965#9" to="186623965#17" /><trip id="116" type="pkw" depart="25404.10557184732" from="-186623965#18" to="-186623965#14" /><trip id="117" type="pkw" depart="25405.86510263911" from="-23283579#1" to="8716827#0" /><trip id="118" type="pkw" depart="25407.624633430896" from="-42925825#2" to="-186623965#14" /><trip id="119" type="pkw" depart="25409.384164222683" from="-28675494#1" to="28675510#7" /><trip id="120" type="pkw" depart="25411.14369501447" from="-186623965#18" to="-186623965#14" /><trip id="121" type="pkw" depart="25412.903225806258" from="186623965#9" to="186623965#17" /><trip id="122" type="pkw" depart="25414.662756598045" from="-186623965#18" to="-186623965#14" /><trip id="123" type="pkw" depart="25416.422287389832" from="-28675494#1" to="-186623965#14" /><trip id="124" type="pkw" depart="25418.18181818162" from="186623965#15" to="-22917421#4" /><trip id="125" type="pkw" depart="25419.941348973407" from="-23648008#3" to="-186623965#14" /><trip id="126" type="pkw" depart="25421.700879765194" from="23283470#0" to="28675510#7" /><trip id="127" type="pkw" depart="25423.46041055698" from="-186623965#18" to="-186623965#14" /><trip id="128" type="pkw" depart="25425.21994134877" from="24675285" to="-186623965#14" /><trip id="129" type="pkw" depart="25426.979472140556" from="186623965#9" to="323416262" /><trip id="130" type="pkw" depart="25428.739002932343" from="-23283579#1" to="23647126" /><trip id="131" type="pkw" depart="25430.49853372413" from="23283469" to="28675510#7" /><trip id="132" type="pkw" depart="25432.258064515918" from="23648008#0" to="28675510#7" /><trip id="133" type="pkw" depart="25434.017595307705" from="22917421#3" to="-23840972" /><trip id="134" type="pkw" depart="25435.777126099492" from="-186623965#18" to="186623965#17" /><trip id="135" type="pkw" depart="25437.53665689128" from="-42925825#2" to="-186623965#14" /><trip id="136" type="pkw" depart="25439.296187683067" from="23840713#2" to="28675510#7" /><trip id="137" type="pkw" depart="25441.055718474854" from="160807420" to="23283436" /><trip id="138" type="pkw" depart="25442.81524926664" from="133081987#0" to="23283436" /><trip id="139" type="pkw" depart="25444.57478005843" from="-186623965#18" to="-186623965#14" /><trip id="140" type="pkw" depart="25446.334310850216" from="186623965#9" to="155600123#0" /><trip id="141" type="pkw" depart="25448.093841642003" from="-28675510#11" to="-186623965#14" /><trip id="142" type="pkw" depart="25449.85337243379" from="-42925825#2" to="186623965#17" /><trip id="143" type="pkw" depart="25451.612903225578" from="186623965#9" to="42925825#0" /><trip id="144" type="pkw" depart="25453.372434017365" from="-186623965#18" to="186623965#17" /><trip id="145" type="pkw" depart="25455.131964809152" from="25166682#0" to="297047309#0" /><trip id="146" type="pkw" depart="25456.89149560094" from="-42925825#2" to="23647126" /><trip id="147" type="pkw" depart="25458.651026392727" from="28691861" to="-186623965#14" /><trip id="148" type="pkw" depart="25460.410557184514" from="-4936412" to="8716827#0" /><trip id="149" type="pkw" depart="25462.1700879763" from="133081987#3" to="8716827#0" /><trip id="150" type="pkw" depart="25463.92961876809" from="186623965#9" to="186623965#17" /><trip id="151" type="pkw" depart="25465.689149559876" from="23286179#0" to="42925825#0" /><trip id="152" type="pkw" depart="25467.448680351663" from="60909001" to="28675510#7" /><trip id="153" type="pkw" depart="25469.20821114345" from="23283579#1" to="28675510#7" /><trip id="154" type="pkw" depart="25470.967741935237" from="-42925825#2" to="-186623965#14" /><trip id="155" type="pkw" depart="25472.727272727025" from="22917421#3" to="297047309#0" /><trip id="156" type="pkw" depart="25474.486803518812" from="-186623965#18" to="-22917421#4" /><trip id="157" type="pkw" depart="25476.2463343106" from="28675510#1" to="28675510#7" /><trip id="158" type="pkw" depart="25478.005865102386" from="23647118" to="28675510#7" /><trip id="159" type="pkw" depart="25479.765395894174" from="-23283579#1" to="155723703#0" /><trip id="160" type="pkw" depart="25481.52492668596" from="-42925825#2" to="-186623965#14" /><trip id="161" type="pkw" depart="25483.28445747775" from="-186623965#18" to="-186623965#14" /><trip id="162" type="pkw" depart="25485.043988269535" from="22917421#3" to="28675494#0" /><trip id="163" type="pkw" depart="25486.803519061323" from="28675493" to="186623965#17" /><trip id="164" type="pkw" depart="25488.56304985311" from="-186623965#18" to="-186623965#14" /><trip id="165" type="pkw" depart="25490.322580644897" from="-42925825#2" to="-186623965#14" /><trip id="166" type="pkw" depart="25492.082111436684" from="-42925825#2" to="-23840972" /><trip id="167" type="pkw" depart="25493.84164222847" from="-186623965#18" to="-186623965#14" /><trip id="168" type="pkw" depart="25495.60117302026" from="-186623965#18" to="-186623965#14" /><trip id="169" type="pkw" depart="25497.360703812046" from="-186623965#18" to="-186623965#14" /><trip id="170" type="pkw" depart="25499.120234603834" from="23283469" to="23283436" /><trip id="171" type="pkw" depart="25500.87976539562" from="-4936412" to="8716827#0" /><trip id="172" type="pkw" depart="25502.639296187408" from="24675285" to="28675510#7" /><trip id="173" type="pkw" depart="25504.398826979195" from="22917421#3" to="42925825#0" /><trip id="174" type="pkw" depart="25506.158357770983" from="22959552#1" to="-186623965#14" /><trip id="175" type="pkw" depart="25507.91788856277" from="-297047309#0" to="297047309#0" /><trip id="176" type="pkw" depart="25509.677419354557" from="-323450710#0" to="-186623965#14" /><trip id="177" type="pkw" depart="25511.436950146344" from="186623965#9" to="-186623965#14" /><trip id="178" type="pkw" depart="25513.19648093813" from="-23283579#0" to="323416262" /><trip id="179" type="pkw" depart="25514.95601172992" from="-42925825#2" to="23283436" /><trip id="180" type="pkw" depart="25516.715542521706" from="25166682#0" to="28675510#7" /><trip id="181" type="pkw" depart="25518.475073313493" from="-28675510#11" to="22959552#0" /><trip id="182" type="pkw" depart="25520.23460410528" from="-186623965#18" to="-186623965#14" /><trip id="183" type="pkw" depart="25521.994134897068" from="-186623965#18" to="-186623965#14" /><trip id="184" type="pkw" depart="25523.753665688855" from="-42925825#2" to="186623965#17" /><trip id="185" type="pkw" depart="25525.513196480642" from="-42925825#2" to="42925825#0" /><trip id="186" type="pkw" depart="25527.27272727243" from="22917421#3" to="23283435#1" /><trip id="187" type="pkw" depart="25529.032258064217" from="-28675510#11" to="28675510#7" /><trip id="188" type="pkw" depart="25530.791788856004" from="23283473" to="28675510#7" /><trip id="189" type="pkw" depart="25532.55131964779" from="-42925825#2" to="-186623965#14" /><trip id="190" type="pkw" depart="25534.31085043958" from="-28675510#11" to="28675510#7" /><trip id="191" type="pkw" depart="25536.070381231366" from="-297047309#0" to="23283579#1" /><trip id="192" type="pkw" depart="25537.829912023153" from="-186623965#18" to="323450710#0" /><trip id="193" type="pkw" depart="25539.58944281494" from="8716807#1" to="323416262" /><trip id="194" type="pkw" depart="25541.348973606728" from="23283580#0" to="-186623965#14" /><trip id="195" type="pkw" depart="25543.108504398515" from="-42925825#2" to="-186623965#14" /><trip id="196" type="pkw" depart="25544.868035190302" from="23285888#0" to="-186623965#14" /><trip id="197" type="pkw" depart="25546.62756598209" from="-23283579#1" to="28675510#7" /><trip id="198" type="pkw" depart="25548.387096773877" from="23283470#0" to="23283579#1" /><trip id="199" type="pkw" depart="25550.146627565664" from="-4936412" to="8716827#0" /><trip id="200" type="pkw" depart="25551.90615835745" from="23283470#0" to="-22917421#4" /><trip id="201" type="pkw" depart="25553.66568914924" from="-23283579#1" to="-186623965#14" /><trip id="202" type="pkw" depart="25555.425219941026" from="22917421#3" to="-22917421#4" /><trip id="203" type="pkw" depart="25557.184750732813" from="-186623965#18" to="-22917421#4" /><trip id="204" type="pkw" depart="25558.9442815246" from="186623965#9" to="42925825#0" /><trip id="205" type="pkw" depart="25560.703812316387" from="-23648008#1" to="-186623965#14" /><trip id="206" type="pkw" depart="25562.463343108175" from="186623965#9" to="186623965#17" /><trip id="207" type="pkw" depart="25564.222873899962" from="-297047309#0" to="-28675493" /><trip id="208" type="pkw" depart="25565.98240469175" from="23283579#1" to="23283579#1" /><trip id="209" type="pkw" depart="25567.741935483537" from="-42925825#2" to="-186623965#14" /><trip id="210" type="pkw" depart="25569.501466275324" from="-23283579#1" to="28675510#7" /><trip id="211" type="pkw" depart="25571.26099706711" from="186623965#9" to="8716807#1" /><trip id="212" type="pkw" depart="25573.0205278589" from="-42925825#2" to="-186623965#14" /><trip id="213" type="pkw" depart="25574.780058650686" from="-23283579#1" to="-22917421#4" /><trip id="214" type="pkw" depart="25576.539589442473" from="-23283579#1" to="-186623965#14" /><trip id="215" type="pkw" depart="25578.29912023426" from="22917421#3" to="186623965#17" /><trip id="216" type="pkw" depart="25580.058651026047" from="22917421#3" to="297047309#0" /><trip id="217" type="pkw" depart="25581.818181817835" from="-186623965#18" to="25166682#0" /><trip id="218" type="pkw" depart="25583.57771260962" from="28675510#1" to="23283436" /><trip id="219" type="pkw" depart="25585.33724340141" from="290365598#0" to="28675510#7" /><trip id="220" type="pkw" depart="25587.096774193196" from="-186623965#18" to="-186623965#14" /><trip id="221" type="pkw" depart="25588.856304984984" from="-23283579#1" to="8716827#0" /><trip id="222" type="pkw" depart="25590.61583577677" from="-186623965#18" to="-186623965#14" /><trip id="223" type="pkw" depart="25592.375366568558" from="23840712#1" to="28675510#7" /><trip id="224" type="pkw" depart="25594.134897360345" from="297047310#4" to="186623965#17" /><trip id="225" type="pkw" depart="25595.894428152133" from="-4936412" to="8716827#0" /><trip id="226" type="pkw" depart="25597.65395894392" from="23283580#0" to="23286179#2" /><trip id="227" type="pkw" depart="25599.413489735707" from="-28675510#11" to="-186623965#14" /><trip id="228" type="pkw" depart="25601.173020527494" from="24675285" to="23840972" /><trip id="229" type="pkw" depart="25602.93255131928" from="22959552#2" to="8716827#0" /><trip id="230" type="pkw" depart="25604.69208211107" from="186623965#9" to="186623965#17" /><trip id="231" type="pkw" depart="25606.451612902856" from="-186623965#18" to="186623965#17" /><trip id="232" type="pkw" depart="25608.211143694643" from="23283472#0" to="28675510#7" /><trip id="233" type="pkw" depart="25609.97067448643" from="-23283579#1" to="297047309#0" /><trip id="234" type="pkw" depart="25611.730205278218" from="22917421#3" to="42925825#0" /><trip id="235" type="pkw" depart="25613.489736070005" from="23840887#3" to="-186623965#14" /><trip id="236" type="pkw" depart="25615.249266861792" from="8716807#1" to="155723703#0" /><trip id="237" type="pkw" depart="25617.00879765358" from="8716807#5" to="8716827#0" /><trip id="238" type="pkw" depart="25618.768328445367" from="24694889" to="28675510#7" /><trip id="239" type="pkw" depart="25620.527859237154" from="22959552#2" to="-186623965#14" /><trip id="240" type="pkw" depart="25622.28739002894" from="-28675510#11" to="-186623965#14" /><trip id="241" type="pkw" depart="25624.04692082073" from="-186623965#18" to="42925825#0" /><trip id="242" type="pkw" depart="25625.806451612516" from="-28675510#11" to="-186623965#14" /><trip id="243" type="pkw" depart="25627.565982404303" from="186623965#17" to="42925825#0" /><trip id="244" type="pkw" depart="25629.32551319609" from="-42925825#2" to="-186623965#14" /><trip id="245" type="pkw" depart="25631.085043987878" from="-186623965#18" to="23283435#1" /><trip id="246" type="pkw" depart="25632.844574779665" from="-23283579#1" to="-297047310#2" /><trip id="247" type="pkw" depart="25634.604105571452" from="-23283579#1" to="8716827#0" /><trip id="248" type="pkw" depart="25636.36363636324" from="-23283579#1" to="297047309#0" /><trip id="249" type="pkw" depart="25638.123167155027" from="-186623965#18" to="-186623965#14" /><trip id="250" type="pkw" depart="25639.882697946814" from="22959550#0" to="-186623965#14" /><trip id="251" type="pkw" depart="25641.6422287386" from="23840712#1" to="-186623965#14" /><trip id="252" type="pkw" depart="25643.40175953039" from="-42925825#2" to="23840971" /><trip id="253" type="pkw" depart="25645.161290322176" from="-4936412" to="8716827#0" /><trip id="254" type="pkw" depart="25646.920821113963" from="23283473" to="28675510#7" /><trip id="255" type="pkw" depart="25648.68035190575" from="-323450710#0" to="42925825#0" /><trip id="256" type="pkw" depart="25650.439882697538" from="23286179#2" to="42925825#0" /><trip id="257" type="pkw" depart="25652.199413489325" from="186623965#9" to="28675510#7" /><trip id="258" type="pkw" depart="25653.958944281112" from="186623965#9" to="28675510#7" /><trip id="259" type="pkw" depart="25655.7184750729" from="23283580#0" to="23286179#2" /><trip id="260" type="pkw" depart="25657.478005864687" from="22917421#3" to="23840888#0" /><trip id="261" type="pkw" depart="25659.237536656474" from="-23283579#1" to="297047309#0" /><trip id="262" type="pkw" depart="25660.99706744826" from="186623965#9" to="-290365598#1" /><trip id="263" type="pkw" depart="25662.75659824005" from="186623965#9" to="186623965#17" /><trip id="264" type="pkw" depart="25664.516129031836" from="186623965#17" to="186623965#17" /><trip id="265" type="pkw" depart="25666.275659823623" from="-28675510#11" to="23648008#2" /><trip id="266" type="pkw" depart="25668.03519061541" from="-42925825#2" to="-186623965#14" /><trip id="267" type="pkw" depart="25669.794721407197" from="-323450710#0" to="42925825#0" /><trip id="268" type="pkw" depart="25671.554252198985" from="186623965#9" to="42925825#0" /><trip id="269" type="pkw" depart="25673.313782990772" from="23283470#2" to="28675510#7" /><trip id="270" type="pkw" depart="25675.07331378256" from="-42925825#2" to="28675510#7" /><trip id="271" type="pkw" depart="25676.832844574346" from="-28675510#11" to="-186623965#14" /><trip id="272" type="pkw" depart="25678.592375366134" from="-23283579#1" to="42925825#0" /><trip id="273" type="pkw" depart="25680.35190615792" from="23840712#1" to="28675510#7" /><trip id="274" type="pkw" depart="25682.111436949708" from="-297047309#0" to="42925825#0" /><trip id="275" type="pkw" depart="25683.870967741495" from="-353069169#0" to="-186623965#14" /><trip id="276" type="pkw" depart="25685.630498533283" from="-28675510#11" to="-297047307" /><trip id="277" type="pkw" depart="25687.39002932507" from="-186623965#18" to="-186623965#14" /><trip id="278" type="pkw" depart="25689.149560116857" from="-42925825#2" to="-186623965#14" /><trip id="279" type="pkw" depart="25690.909090908644" from="-23840712#0" to="-186623965#14" /><trip id="280" type="pkw" depart="25692.66862170043" from="22959550#3" to="155723703#0" /><trip id="281" type="pkw" depart="25694.42815249222" from="297047309#0" to="23283579#1" /><trip id="282" type="pkw" depart="25696.187683284006" from="-28675510#11" to="28675510#7" /><trip id="283" type="pkw" depart="25697.947214075793" from="8716807#1" to="155723703#0" /><trip id="284" type="pkw" depart="25699.70674486758" from="-4936412" to="8716827#0" /><trip id="285" type="pkw" depart="25701.466275659368" from="22959550#0" to="-22917421#4" /><trip id="286" type="pkw" depart="25703.225806451155" from="22917421#3" to="186623965#17" /><trip id="287" type="pkw" depart="25704.985337242942" from="-186623965#18" to="-186623965#14" /><trip id="288" type="pkw" depart="25706.74486803473" from="133081987#3" to="28675510#7" /><trip id="289" type="pkw" depart="25708.504398826517" from="-42925825#2" to="-186623965#14" /><trip id="290" type="pkw" depart="25710.263929618304" from="-186623965#18" to="-186623965#14" /><trip id="291" type="pkw" depart="25712.02346041009" from="-42925825#2" to="-186623965#14" /><trip id="292" type="pkw" depart="25713.78299120188" from="-186623965#18" to="-186623965#14" /><trip id="293" type="pkw" depart="25715.542521993666" from="-28675510#11" to="28675510#7" /><trip id="294" type="pkw" depart="25717.302052785453" from="-186623965#18" to="-186623965#14" /><trip id="295" type="pkw" depart="25719.06158357724" from="8716807#5" to="42925825#0" /><trip id="296" type="pkw" depart="25720.821114369028" from="-28675510#11" to="-186623965#14" /><trip id="297" type="pkw" depart="25722.580645160815" from="23840888#0" to="155723703#0" /><trip id="298" type="pkw" depart="25724.340175952602" from="160807420" to="23283436" /><trip id="299" type="pkw" depart="25726.09970674439" from="186623965#17" to="186623965#17" /><trip id="300" type="pkw" depart="25727.859237536177" from="22917421#3" to="-186623965#14" /><trip id="301" type="pkw" depart="25729.618768327964" from="-23283579#1" to="-186623965#14" /><trip id="302" type="pkw" depart="25731.37829911975" from="186623965#9" to="42925825#0" /><trip id="303" type="pkw" depart="25733.13782991154" from="-28675510#11" to="-186623965#14" /><trip id="304" type="pkw" depart="25734.897360703326" from="186623965#9" to="186623965#17" /><trip id="305" type="pkw" depart="25736.656891495113" from="-28675493" to="323450710#0" /><trip id="306" type="pkw" depart="25738.4164222869" from="-23283579#1" to="-22917421#4" /><trip id="307" type="pkw" depart="25740.175953078688" from="23285888#0" to="23283579#1" /><trip id="308" type="pkw" depart="25741.935483870475" from="-4936412" to="8716827#0" /><trip id="309" type="pkw" depart="25743.695014662262" from="-4936412" to="8716827#0" /><trip id="310" type="pkw" depart="25745.45454545405" from="186623965#9" to="186623965#17" /><trip id="311" type="pkw" depart="25747.214076245837" from="160807420" to="8716827#0" /><trip id="312" type="pkw" depart="25748.973607037624" from="-42925825#2" to="186623965#17" /><trip id="313" type="pkw" depart="25750.73313782941" from="24675285" to="-186623965#14" /><trip id="314" type="pkw" depart="25752.4926686212" from="-42925825#2" to="23648008#0" /><trip id="315" type="pkw" depart="25754.252199412986" from="-186623965#18" to="-186623965#14" /><trip id="316" type="pkw" depart="25756.011730204773" from="23647126" to="28675510#7" /><trip id="317" type="pkw" depart="25757.77126099656" from="22959550#0" to="42925825#0" /><trip id="318" type="pkw" depart="25759.530791788347" from="-23283579#1" to="28675510#7" /><trip id="319" type="pkw" depart="25761.290322580135" from="60909001" to="28675510#7" /><trip id="320" type="pkw" depart="25763.049853371922" from="-28675510#11" to="-186623965#14" /><trip id="321" type="pkw" depart="25764.80938416371" from="23283580#0" to="28675510#7" /><trip id="322" type="pkw" depart="25766.568914955496" from="-186623965#18" to="-186623965#14" /><trip id="323" type="pkw" depart="25768.328445747284" from="-23283579#1" to="42925825#0" /><trip id="324" type="pkw" depart="25770.08797653907" from="-42925825#2" to="-186623965#14" /><trip id="325" type="pkw" depart="25771.84750733086" from="60909001" to="28675510#7" /><trip id="326" type="pkw" depart="25773.607038122645" from="-297047309#0" to="297047309#