<routes xmlns:xsi="http://www.w3.org/2001/XMLSchema-instance" xsi:noNamespaceSchemaLocation="http://sumo.dlr.de/xsd/routes_file.xsd">
	<vType id="bus" vClass="bus" color="green" />
	<vType id="default_017" vClass="passenger" color="red" />
    <vType id="random_017" vClass="passenger" color="blue" />
	<vType id="default_016" vClass="passenger" color="red" />
    <vType id="random_016" vClass="passenger" color="blue" />
	<vType id="default_015" vClass="passenger" color="red" />
    <vType id="random_015" vClass="passenger" color="blue" />
	<vType id="default_014" vClass="passenger" color="red" />
    <vType id="random_014" vClass="passenger" color="blue" />
	<vType id="default_013" vClass="passenger" color="red" />
    <vType id="random_013" vClass="passenger" color="blue" />
    <vType id="default_012" vClass="passenger" color="red" />
    <vType id="random_012" vClass="passenger" color="blue" />
	<vType id="default_011" vClass="passenger" color="red" />
    <vType id="random_011" vClass="passenger" color="blue" />
	<vType id="default_010" vClass="passenger" color="red" />
    <vType id="random_010" vClass="passenger" color="blue" />
	<vType id="default_009" vClass="passenger" color="red" />
    <vType id="random_009" vClass="passenger" color="blue" />
	<vType id="default_008" vClass="passenger" color="red" />
    <vType id="random_008" vClass="passenger" color="blue" />
	<vType id="default_007" vClass="passenger" color="red" />
    <vType id="random_007" vClass="passenger" color="blue" />
	<vType id="default_006" vClass="passenger" color="red" />
    <vType id="random_006" vClass="passenger" color="blue" />
	<vType id="default_005" vClass="passenger" color="red" />
    <vType id="random_005" vClass="passenger" color="blue" />
	<vType id="default_004" vClass="passenger" color="red" />
    <vType id="random_004" vClass="passenger" color="blue" />
	<vType id="default_003" vClass="passenger" color="red" />
    <vType id="random_003" vClass="passenger" color="blue" />
	<vType id="default_022" vClass="passenger" color="red" />
    <vType id="random_022" vClass="passenger" color="blue" />
	<vType id="default_021" vClass="passenger" color="red" />
    <vType id="random_021" vClass="passenger" color="blue" />
	<vType id="default_020" vClass="passenger" color="red" />
    <vType id="random_020" vClass="passenger" color="blue" />
	<vType id="default_019" vClass="passenger" color="red" />
    <vType id="random_019" vClass="passenger" color="blue" />
	<vType id="default_018" vClass="passenger" color="red" />
    <vType id="random_018" vClass="passenger" color="blue" />
	<vType id="default_002" vClass="passenger" color="red" />
    <vType id="random_002" vClass="passenger" color="blue" />
	<vType id="default_001" vClass="passenger" color="red" />
    <vType id="random_001" vClass="passenger" color="blue" />
<trip id="0" type="default_016" depart="57600" from="386687232#0" to="-315358254#1" /><trip id="1" type="default_016" depart="57600.84053233715" from="24634507" to="-266565295#5" /><trip id="2" type="default_016" depart="57601.681064674296" from="315358254#0" to="386687235" /><trip id="3" type="default_016" depart="57602.521597011444" from="24599188#0.94" to="-10427692#3" /><trip id="4" type="default_017" depart="57603.36212934859" from="266565295#5" to="-315358257#2" /><trip id="5" type="default_017" depart="57604.20266168574" from="266565295#5" to="-128361102#1" /><trip id="6" type="default_017" depart="57605.04319402289" from="-306240162#1" to="386687235" /><trip id="7" type="default_017" depart="57605.883726360036" from="-32978638#0" to="-315358254#1" /><trip id="8" type="default_017" depart="57606.724258697184" from="315358254#0" to="-83304175#2" /><trip id="9" type="default_017" depart="57607.56479103433" from="-18809673#6" to="-266565295#5" /><trip id="10" type="default_017" depart="57608.40532337148" from="24608846#0" to="30482615#1" /><trip id="11" type="default_018" depart="57609.24585570863" from="25190140#1" to="201956811#0" /><trip id="12" type="default_016" depart="57610.08638804578" from="-32978638#0" to="-315358252#1" /><trip id="13" type="default_017" depart="57610.926920382924" from="24634517#6" to="-128361102#1" /><trip id="14" type="default_016" depart="57611.76745272007" from="124812856#0" to="18809673#0" /><trip id="15" type="default_017" depart="57612.60798505722" from="124812856#0" to="18809673#0" /><trip id="16" type="default_017" depart="57613.44851739437" from="386687232#0" to="201238729#3" /><trip id="17" type="default_017" depart="57614.28904973152" from="386687232#0" to="-315358254#1" /><trip id="18" type="default_017" depart="57615.129582068665" from="-306240162#1" to="272042145" /><trip id="19" type="default_017" depart="57615.97011440581" from="24599188#0.94" to="306240162#0" /><trip id="20" type="default_016" depart="57616.81064674296" from="-24634510#15" to="201956820" /><trip id="21" type="default_016" depart="57617.65117908011" from="399835085#1" to="18809673#0" /><trip id="22" type="random_018" depart="57618.49171141726" from="-18809673#6" to="201956820" /><trip id="23" type="default_016" depart="57619.332243754405" from="24599188#0.94" to="-315358254#1" /><trip id="24" type="default_017" depart="57620.17277609155" from="386687232#0" to="306240162#0" /><trip id="25" type="default_017" depart="57621.0133084287" from="-24634510#5" to="201956820" /><trip id="26" type="random_016" depart="57621.85384076585" from="124812856#0" to="201956810" /><trip id="27" type="default_017" depart="57622.694373103" from="-306240162#1" to="386687235" /><trip id="28" type="default_017" depart="57623.534905440145" from="-18809673#6" to="201956811#0" /><trip id="29" type="default_017" depart="57624.37543777729" from="-28319300#2" to="399835085#1" /><trip id="30" type="default_017" depart="57625.21597011444" from="-447569998#1" to="-315358244" /><trip id="31" type="default_016" depart="57626.05650245159" from="-32978638#0" to="-315358244" /><trip id="32" type="default_017" depart="57626.89703478874" from="-306240162#1" to="32978638#0" /><trip id="33" type="default_017" depart="57627.737567125885" from="124812856#0" to="-315358254#1" /><trip id="34" type="default_017" depart="57628.57809946303" from="124812856#0" to="306240162#0" /><trip id="35" type="default_018" depart="57629.41863180018" from="-18809673#6" to="201956820" /><trip id="36" type="default_017" depart="57630.25916413733" from="128361109#1" to="-315358254#1" /><trip id="37" type="default_017" depart="57631.09969647448" from="24634413#0" to="201956820" /><trip id="38" type="random_017" depart="57631.940228811625" from="128361102#0" to="201956820" /><trip id="39" type="random_017" depart="57632.78076114877" from="-32978638#0" to="201950250#0" /><trip id="40" type="default_016" depart="57633.62129348592" from="399835085#1" to="32978638#0" /><trip id="41" type="default_017" depart="57634.46182582307" from="-32978638#0" to="201238729#3" /><trip id="42" type="default_017" depart="57635.30235816022" from="128361109#1" to="32978638#0" /><trip id="43" type="default_017" depart="57636.142890497365" from="128361109#1" to="386687235" /><trip id="44" type="default_017" depart="57636.98342283451" from="124812856#0" to="18809673#0" /><trip id="45" type="default_017" depart="57637.82395517166" from="-306240162#1" to="386687235" /><trip id="46" type="default_017" depart="57638.66448750881" from="124812856#0" to="18809673#0" /><trip id="47" type="default_017" depart="57639.50501984596" from="266565295#5" to="-315358257#2" /><trip id="48" type="default_017" depart="57640.345552183106" from="173203413#0" to="32978638#0" /><trip id="49" type="default_017" depart="57641.186084520254" from="-306240162#1" to="386687235" /><trip id="50" type="default_017" depart="57642.0266168574" from="124812856#0" to="-128361102#1" /><trip id="51" type="default_016" depart="57642.86714919455" from="-306240162#1" to="386687235" /><trip id="52" type="default_017" depart="57643.7076815317" from="-18809673#6" to="386687235" /><trip id="53" type="default_017" depart="57644.548213868846" from="10425609#0" to="-128361102#1" /><trip id="54" type="random_017" depart="57645.388746205994" from="315358244" to="201956810" /><trip id="55" type="default_016" depart="57646.22927854314" from="272042143" to="201238729#3" /><trip id="56" type="default_016" depart="57647.06981088029" from="-306240162#1" to="-266565295#5" /><trip id="57" type="default_017" depart="57647.91034321744" from="272042143" to="-315358254#1" /><trip id="58" type="default_017" depart="57648.750875554586" from="28319300#0" to="32978638#0" /><trip id="59" type="default_017" depart="57649.591407891734" from="128361109#1" to="272042145" /><trip id="60" type="default_017" depart="57650.43194022888" from="272042143" to="-315358254#1" /><trip id="61" type="default_017" depart="57651.27247256603" from="24599188#0.94" to="-315358244" /><trip id="62" type="default_016" depart="57652.11300490318" from="10425609#0" to="18809673#0" /><trip id="63" type="default_017" depart="57652.953537240326" from="266565295#5" to="306240162#0" /><trip id="64" type="default_017" depart="57653.794069577474" from="315358254#0" to="201956820" /><trip id="65" type="default_017" depart="57654.63460191462" from="315358244" to="386687235" /><trip id="66" type="default_017" depart="57655.47513425177" from="-315392062#4" to="-266565295#5" /><trip id="67" type="default_016" depart="57656.31566658892" from="315358244" to="386687235" /><trip id="68" type="default_017" depart="57657.156198926066" from="272042143" to="-128361102#1" /><trip id="69" type="default_017" depart="57657.996731263214" from="-447569998#1" to="-315358244" /><trip id="70" type="default_016" depart="57658.83726360036" from="386687232#0" to="201238729#3" /><trip id="71" type="default_017" depart="57659.67779593751" from="-306240162#1" to="201956820" /><trip id="72" type="default_016" depart="57660.51832827466" from="386687232#0" to="306240162#0" /><trip id="73" type="default_017" depart="57661.35886061181" from="124812856#0" to="306240162#0" /><trip id="74" type="default_017" depart="57662.199392948954" from="-306240162#1" to="386687235" /><trip id="75" type="default_016" depart="57663.0399252861" from="386687232#0" to="32978638#0" /><trip id="76" type="default_018" depart="57663.88045762325" from="-306240162#1" to="386687235" /><trip id="77" type="random_017" depart="57664.7209899604" from="124812856#0" to="306240162#0" /><trip id="78" type="default_016" depart="57665.56152229755" from="10425609#0" to="18809673#0" /><trip id="79" type="random_017" depart="57666.402054634695" from="124812856#0" to="306240162#0" /><trip id="80" type="default_017" depart="57667.24258697184" from="272042143" to="201238729#3" /><trip id="81" type="default_016" depart="57668.08311930899" from="10425609#0" to="-201963533#1.145" /><trip id="82" type="default_017" depart="57668.92365164614" from="315358244" to="386687235" /><trip id="83" type="default_016" depart="57669.76418398329" from="10425609#0" to="18809673#0" /><trip id="84" type="default_017" depart="57670.604716320435" from="124812856#0" to="306240162#0" /><trip id="85" type="default_017" depart="57671.44524865758" from="266565295#5" to="-128361102#1" /><trip id="86" type="default_016" depart="57672.28578099473" from="-32978638#0" to="-315358254#1" /><trip id="87" type="default_017" depart="57673.12631333188" from="-306240162#1" to="272042145" /><trip id="88" type="default_017" depart="57673.96684566903" from="124812856#0" to="201201953#12" /><trip id="89" type="default_017" depart="57674.807378006175" from="386687232#0" to="201238729#3" /><trip id="90" type="default_016" depart="57675.64791034332" from="124812856#0" to="18809673#0" /><trip id="91" type="default_017" depart="57676.48844268047" from="128361109#1" to="399835085#1" /><trip id="92" type="default_017" depart="57677.32897501762" from="266565295#5" to="-315358244" /><trip id="93" type="default_016" depart="57678.16950735477" from="315358244" to="-266565295#5" /><trip id="94" type="default_017" depart="57679.010039691915" from="201950259#0" to="306240162#0" /><trip id="95" type="default_017" depart="57679.85057202906" from="386687232#0" to="306240162#0" /><trip id="96" type="default_016" depart="57680.69110436621" from="128361102#0" to="201956820" /><trip id="97" type="default_017" depart="57681.53163670336" from="-306240162#1" to="386687235" /><trip id="98" type="default_016" depart="57682.37216904051" from="-447569998#1" to="-315358254#1" /><trip id="99" type="default_016" depart="57683.212701377655" from="315358244" to="201956820" /><trip id="100" type="default_017" depart="57684.0532337148" from="315358254#0" to="4942376" /><trip id="101" type="default_016" depart="57684.89376605195" from="266565295#5" to="306240162#0" /><trip id="102" type="default_017" depart="57685.7342983891" from="386687232#0" to="306240162#0" /><trip id="103" type="default_016" depart="57686.57483072625" from="-306240162#1" to="201956820" /><trip id="104" type="default_016" depart="57687.415363063395" from="124812856#0" to="-128361102#1" /><trip id="105" type="default_017" depart="57688.25589540054" from="128361102#0" to="201956820" /><trip id="106" type="default_017" depart="57689.09642773769" from="40888354#0" to="32978638#0" /><trip id="107" type="default_016" depart="57689.93696007484" from="128361109#1" to="40888354#0" /><trip id="108" type="default_017" depart="57690.77749241199" from="386687232#0" to="-315358254#1" /><trip id="109" type="default_017" depart="57691.618024749136" from="-306240162#1" to="386687235" /><trip id="110" type="default_017" depart="57692.458557086284" from="386687232#0" to="201238729#3" /><trip id="111" type="default_016" depart="57693.29908942343" from="-447569998#1" to="-315358254#1" /><trip id="112" type="random_017" depart="57694.13962176058" from="124812856#0" to="23525483#1" /><trip id="113" type="default_017" depart="57694.98015409773" from="386687232#0" to="-315358254#1" /><trip id="114" type="default_017" depart="57695.820686434876" from="315358254#0" to="32978638#0" /><trip id="115" type="default_016" depart="57696.661218772024" from="386687232#0" to="201238729#3" /><trip id="116" type="bus" depart="57697.50175110917" from="-32978638#0" to="201238729#3" /><trip id="117" type="default_016" depart="57698.34228344632" from="10425609#0" to="-128361102#1" /><trip id="118" type="default_017" depart="57699.18281578347" from="399835085#1" to="386687235" /><trip id="119" type="default_017" depart="57700.023348120616" from="266565295#5" to="201238729#3" /><trip id="120" type="default_016" depart="57700.863880457764" from="128361109#1" to="-266565295#5" /><trip id="121" type="default_016" depart="57701.70441279491" from="201950263#7" to="386687235" /><trip id="122" type="random_017" depart="57702.54494513206" from="128361109#1" to="386687235" /><trip id="123" type="default_017" depart="57703.38547746921" from="386687232#0" to="-315358254#1" /><trip id="124" type="default_017" depart="57704.226009806356" from="128361109#1" to="272042145" /><trip id="125" type="default_017" depart="57705.066542143504" from="-40888350" to="386687235" /><trip id="126" type="default_017" depart="57705.90707448065" from="128361109#1" to="32978638#0" /><trip id="127" type="default_017" depart="57706.7476068178" from="-18809673#6" to="386687235" /><trip id="128" type="default_017" depart="57707.58813915495" from="128361109#1" to="272042145" /><trip id="129" type="default_017" depart="57708.428671492096" from="-26677417#1" to="-315358244" /><trip id="130" type="random_017" depart="57709.269203829244" from="-32978638#0" to="-201201945#0.78" /><trip id="131" type="default_017" depart="57710.10973616639" from="-18809673#6" to="-266565295#5" /><trip id="132" type="default_016" depart="57710.95026850354" from="128361109#1" to="-266565295#5" /><trip id="133" type="default_016" depart="57711.79080084069" from="386687232#0" to="399835085#1" /><trip id="134" type="default_018" depart="57712.63133317784" from="24634506#0" to="306240162#0" /><trip id="135" type="default_017" depart="57713.471865514985" from="-32978638#0" to="399835085#1" /><trip id="136" type="default_017" depart="57714.31239785213" from="-306240162#1" to="386687235" /><trip id="137" type="default_016" depart="57715.15293018928" from="128361109#1" to="-315358254#1" /><trip id="138" type="default_016" depart="57715.99346252643" from="272042143" to="201238729#3" /><trip id="139" type="default_017" depart="57716.83399486358" from="-32978638#0" to="399835085#1" /><trip id="140" type="default_017" depart="57717.674527200725" from="315358254#0" to="306240162#0" /><trip id="141" type="default_017" depart="57718.51505953787" from="-24634510#0" to="399835085#1" /><trip id="142" type="default_017" depart="57719.35559187502" from="386687232#0" to="-315358254#1" /><trip id="143" type="default_017" depart="57720.19612421217" from="-32978638#0" to="-22716549#6" /><trip id="144" type="random_016" depart="57721.03665654932" from="286646456#1" to="30482615#1" /><trip id="145" type="default_016" depart="57721.877188886465" from="124812856#0" to="306240162#0" /><trip id="146" type="default_017" depart="57722.71772122361" from="128361102#0" to="201956811#0" /><trip id="147" type="default_017" depart="57723.55825356076" from="315358244" to="18809673#0" /><trip id="148" type="default_017" depart="57724.39878589791" from="315358254#0" to="399835085#1" /><trip id="149" type="default_016" depart="57725.23931823506" from="272042143" to="-315358254#1" /><trip id="150" type="random_016" depart="57726.079850572205" from="124812856#0" to="-315358254#1" /><trip id="151" type="default_017" depart="57726.92038290935" from="24693977#1" to="306240162#0" /><trip id="152" type="default_017" depart="57727.7609152465" from="-447569998#1" to="399835085#1" /><trip id="153" type="default_017" depart="57728.60144758365" from="128361109#1" to="-315358244" /><trip id="154" type="default_016" depart="57729.4419799208" from="-306240162#1" to="272042145" /><trip id="155" type="default_017" depart="57730.282512257945" from="-306240162#1" to="272042145" /><trip id="156" type="default_017" depart="57731.12304459509" from="-306240162#1" to="32978638#0" /><trip id="157" type="default_017" depart="57731.96357693224" from="128361109#1" to="-315358244" /><trip id="158" type="default_016" depart="57732.80410926939" from="128361109#1" to="-266565295#5" /><trip id="159" type="default_016" depart="57733.64464160654" from="272042143" to="201238729#3" /><trip id="160" type="random_016" depart="57734.485173943685" from="386687232#0" to="201238729#1" /><trip id="161" type="default_016" depart="57735.32570628083" from="315358244" to="201956820" /><trip id="162" type="default_016" depart="57736.16623861798" from="128361109#1" to="-266565295#5" /><trip id="163" type="default_017" depart="57737.00677095513" from="128361109#1" to="-315358254#1" /><trip id="164" type="default_016" depart="57737.84730329228" from="128361109#1" to="386687235" /><trip id="165" type="default_016" depart="57738.687835629426" from="-32978638#0" to="-315358244" /><trip id="166" type="default_016" depart="57739.52836796657" from="128361109#1" to="272042145" /><trip id="167" type="default_016" depart="57740.36890030372" from="128361109#1" to="32978638#0" /><trip id="168" type="default_016" depart="57741.20943264087" from="315358244" to="201956820" /><trip id="169" type="default_017" depart="57742.04996497802" from="-447569998#1" to="-315358244" /><trip id="170" type="default_017" depart="57742.890497315166" from="386687232#0" to="-315358254#1" /><trip id="171" type="default_016" depart="57743.731029652314" from="128361109#1" to="-315358254#1" /><trip id="172" type="default_016" depart="57744.57156198946" from="272042143" to="399835085#1" /><trip id="173" type="default_016" depart="57745.41209432661" from="24634513#0" to="272042145" /><trip id="174" type="random_017" depart="57746.25262666376" from="-32978638#0" to="26677540#2" /><trip id="175" type="default_016" depart="57747.093159000906" from="272042143" to="-315358254#1" /><trip id="176" type="default_016" depart="57747.933691338054" from="24599188#0.94" to="-315358254#1" /><trip id="177" type="default_016" depart="57748.7742236752" from="128361102#0" to="30482615#1" /><trip id="178" type="default_017" depart="57749.61475601235" from="124812856#0" to="-315358254#1" /><trip id="179" type="default_016" depart="57750.4552883495" from="-306240162#1" to="28111977#0" /><trip id="180" type="default_017" depart="57751.295820686646" from="-306240162#1" to="201956820" /><trip id="181" type="default_017" depart="57752.136353023794" from="24634511" to="18809673#0" /><trip id="182" type="default_016" depart="57752.97688536094" from="266565295#5" to="201238729#3" /><trip id="183" type="random_016" depart="57753.81741769809" from="128361102#0" to="201956820" /><trip id="184" type="bus" depart="57754.65795003524" from="315358250#0" to="386687235" /><trip id="185" type="default_017" depart="57755.498482372386" from="128361109#1" to="272042145" /><trip id="186" type="default_017" depart="57756.339014709534" from="10425609#0" to="-128361102#1" /><trip id="187" type="default_017" depart="57757.17954704668" from="128361109#1" to="386687235" /><trip id="188" type="default_017" depart="57758.02007938383" from="128361109#1" to="-315358254#1" /><trip id="189" type="default_018" depart="57758.86061172098" from="-306240162#1" to="201956820" /><trip id="190" type="default_017" depart="57759.70114405813" from="386687232#0" to="306240162#0" /><trip id="191" type="default_017" depart="57760.541676395274" from="124812856#0" to="-233675413#8" /><trip id="192" type="default_016" depart="57761.38220873242" from="10425609#0" to="18809673#0" /><trip id="193" type="default_016" depart="57762.22274106957" from="124812856#0" to="18809673#0" /><trip id="194" type="default_017" depart="57763.06327340672" from="-306240162#1" to="32978638#0" /><trip id="195" type="default_016" depart="57763.90380574387" from="-447569998#1" to="-315358254#1" /><trip id="196" type="default_018" depart="57764.744338081015" from="128361109#1" to="386687235" /><trip id="197" type="default_016" depart="57765.58487041816" from="-447569998#1" to="-315358244" /><trip id="198" type="default_017" depart="57766.42540275531" from="-306240162#1" to="32978638#0" /><trip id="199" type="default_017" depart="57767.26593509246" from="-18809673#6" to="201956820" /><trip id="200" type="default_017" depart="57768.10646742961" from="315358244" to="386687235" /><trip id="201" type="default_017" depart="57768.946999766755" from="272042143" to="315358257#0" /><trip id="202" type="default_017" depart="57769.7875321039" from="399835085#1" to="-315358254#1" /><trip id="203" type="default_017" depart="57770.62806444105" from="24599188#0.94" to="-315358244" /><trip id="204" type="default_016" depart="57771.4685967782" from="315358254#0" to="272042145" /><trip id="205" type="default_017" depart="57772.30912911535" from="-306240162#1" to="272042145" /><trip id="206" type="default_017" depart="57773.149661452495" from="124812856#0" to="-128361102#1" /><trip id="207" type="default_016" depart="57773.99019378964" from="124812856#0" to="306240162#0" /><trip id="208" type="default_017" depart="57774.83072612679" from="386687232#0" to="306240162#0" /><trip id="209" type="default_016" depart="57775.67125846394" from="-32978638#0" to="-315358244" /><trip id="210" type="default_017" depart="57776.51179080109" from="386687232#0" to="399835085#1" /><trip id="211" type="default_017" depart="57777.352323138235" from="-306240162#1" to="272042145" /><trip id="212" type="default_016" depart="57778.19285547538" from="128361109#1" to="399835085#1" /><trip id="213" type="default_017" depart="57779.03338781253" from="-306240162#1" to="-315358254#1" /><trip id="214" type="default_016" depart="57779.87392014968" from="386687232#0" to="201238729#3" /><trip id="215" type="bus" depart="57780.71445248683" from="386687232#0" to="-315358244" /><trip id="216" type="random_017" depart="57781.554984823975" from="386687232#0" to="-40888354#0" /><trip id="217" type="default_016" depart="57782.39551716112" from="128361102#0" to="-24634517#17" /><trip id="218" type="default_017" depart="57783.23604949827" from="128361102#0" to="201956820" /><trip id="219" type="default_016" depart="57784.07658183542" from="129379925" to="386687235" /><trip id="220" type="default_016" depart="57784.91711417257" from="25190140#1" to="-128361102#1" /><trip id="221" type="default_017" depart="57785.757646509715" from="266565295#5" to="306240162#0" /><trip id="222" type="default_017" depart="57786.59817884686" from="128361109#1" to="272042145" /><trip id="223" type="default_016" depart="57787.43871118401" from="128361109#1" to="386687235" /><trip id="224" type="default_016" depart="57788.27924352116" from="386687232#0" to="306240162#0" /><trip id="225" type="default_017" depart="57789.11977585831" from="-306240162#1" to="386687235" /><trip id="226" type="default_016" depart="57789.960308195456" from="124812856#0" to="-128361102#1" /><trip id="227" type="default_017" depart="57790.8008405326" from="128361109#1" to="-315358254#1" /><trip id="228" type="default_017" depart="57791.64137286975" from="124812856#0" to="-128361102#1" /><trip id="229" type="default_017" depart="57792.4819052069" from="24599188#0.94" to="399835085#1" /><trip id="230" type="default_016" depart="57793.32243754405" from="-18809673#6" to="-266565295#5" /><trip id="231" type="default_017" depart="57794.162969881196" from="24634411" to="306240162#0" /><trip id="232" type="default_016" depart="57795.003502218344" from="-306240162#1" to="30482615#1" /><trip id="233" type="default_017" depart="57795.84403455549" from="272042143" to="306240162#0" /><trip id="234" type="default_017" depart="57796.68456689264" from="386687232#0" to="306240162#0" /><trip id="235" type="default_017" depart="57797.52509922979" from="10425609#0" to="18809673#0" /><trip id="236" type="default_017" depart="57798.365631566936" from="128361109#1" to="386687235" /><trip id="237" type="default_017" depart="57799.206163904084" from="272042143" to="-315358254#1" /><trip id="238" type="default_016" depart="57800.04669624123" from="272042143" to="306240162#0" /><trip id="239" type="default_017" depart="57800.88722857838" from="128361109#1" to="272042145" /><trip id="240" type="default_017" depart="57801.72776091553" from="24634510#1" to="-128361102#1" /><trip id="241" type="default_017" depart="57802.568293252676" from="124812856#0" to="18809673#0" /><trip id="242" type="default_017" depart="57803.408825589824" from="10425609#0" to="-128361102#1" /><trip id="243" type="default_017" depart="57804.24935792697" from="315358254#0" to="306240162#0" /><trip id="244" type="bus" depart="57805.08989026412" from="-18809673#6" to="201956811#0" /><trip id="245" type="default_016" depart="57805.93042260127" from="-32978638#0" to="-315358244" /><trip id="246" type="default_017" depart="57806.770954938416" from="128361109#1" to="386687235" /><trip id="247" type="default_017" depart="57807.611487275564" from="272042143" to="201238729#3" /><trip id="248" type="default_016" depart="57808.45201961271" from="-32978638#0" to="-315358254#1" /><trip id="249" type="default_016" depart="57809.29255194986" from="24599188#0.94" to="-315358254#1" /><trip id="250" type="default_017" depart="57810.13308428701" from="266565295#5" to="201238729#3" /><trip id="251" type="default_017" depart="57810.97361662416" from="128361109#1" to="272042145" /><trip id="252" type="default_017" depart="57811.814148961304" from="128361109#1" to="-266565295#5" /><trip id="253" type="default_017" depart="57812.65468129845" from="-306240162#1" to="272042145" /><trip id="254" type="default_017" depart="57813.4952136356" from="386687232#0" to="201238729#3" /><trip id="255" type="default_017" depart="57814.33574597275" from="386687232#0" to="306240162#0" /><trip id="256" type="default_016" depart="57815.1762783099" from="128361109#1" to="-266565295#5" /><trip id="257" type="default_017" depart="57816.016810647045" from="-315358242#0" to="-315358244" /><trip id="258" type="default_016" depart="57816.85734298419" from="386687232#0" to="306240162#0" /><trip id="259" type="default_017" depart="57817.69787532134" from="24599188#0.94" to="399835085#1" /><trip id="260" type="default_017" depart="57818.53840765849" from="315358254#0" to="306240162#0" /><trip id="261" type="default_017" depart="57819.37893999564" from="386687232#0" to="-315358244" /><trip id="262" type="default_017" depart="57820.219472332785" from="315358254#0" to="-24634506#1" /><trip id="263" type="default_016" depart="57821.06000466993" from="386687232#0" to="201238729#3" /><trip id="264" type="default_017" depart="57821.90053700708" from="-32978638#0" to="-128361102#1" /><trip id="265" type="default_017" depart="57822.74106934423" from="-32978638#0" to="-315358244" /><trip id="266" type="default_016" depart="57823.58160168138" from="-32978638#0" to="-315358254#1" /><trip id="267" type="default_017" depart="57824.422134018525" from="10425609#0" to="306240162#0" /><trip id="268" type="default_017" depart="57825.26266635567" from="315358244" to="32978638#0" /><trip id="269" type="default_016" depart="57826.10319869282" from="-32978638#0" to="399835085#1" /><trip id="270" type="default_017" depart="57826.94373102997" from="124812856#0" to="-128361102#1" /><trip id="271" type="default_017" depart="57827.78426336712" from="201963522#0" to="201956820" /><trip id="272" type="default_016" depart="57828.624795704265" from="10425609#0" to="-128361102#1" /><trip id="273" type="default_017" depart="57829.46532804141" from="315358244" to="386687235" /><trip id="274" type="default_016" depart="57830.30586037856" from="-32978638#0" to="-315358244" /><trip id="275" type="default_017" depart="57831.14639271571" from="128361102#0" to="201956820" /><trip id="276" type="default_017" depart="57831.98692505286" from="23525483#1" to="306240162#0" /><tri