<routes xmlns:xsi="http://www.w3.org/2001/XMLSchema-instance" xsi:noNamespaceSchemaLocation="http://sumo.dlr.de/xsd/routes_file.xsd">
	<vType id="bus" vClass="bus" color="green" />
	<vType id="default_017" vClass="passenger" color="red" />
    <vType id="random_017" vClass="passenger" color="blue" />
	<vType id="default_016" vClass="passenger" color="red" />
    <vType id="random_016" vClass="passenger" color="blue" />
	<vType id="default_015" vClass="passenger" color="red" />
    <vType id="random_015" vClass="passenger" color="blue" />
	<vType id="default_014" vClass="passenger" color="red" />
    <vType id="random_014" vClass="passenger" color="blue" />
	<vType id="default_013" vClass="passenger" color="red" />
    <vType id="random_013" vClass="passenger" color="blue" />
    <vType id="default_012" vClass="passenger" color="red" />
    <vType id="random_012" vClass="passenger" color="blue" />
	<vType id="default_011" vClass="passenger" color="red" />
    <vType id="random_011" vClass="passenger" color="blue" />
	<vType id="default_010" vClass="passenger" color="red" />
    <vType id="random_010" vClass="passenger" color="blue" />
	<vType id="default_009" vClass="passenger" color="red" />
    <vType id="random_009" vClass="passenger" color="blue" />
	<vType id="default_008" vClass="passenger" color="red" />
    <vType id="random_008" vClass="passenger" color="blue" />
	<vType id="default_007" vClass="passenger" color="red" />
    <vType id="random_007" vClass="passenger" color="blue" />
	<vType id="default_006" vClass="passenger" color="red" />
    <vType id="random_006" vClass="passenger" color="blue" />
	<vType id="default_005" vClass="passenger" color="red" />
    <vType id="random_005" vClass="passenger" color="blue" />
	<vType id="default_004" vClass="passenger" color="red" />
    <vType id="random_004" vClass="passenger" color="blue" />
	<vType id="default_003" vClass="passenger" color="red" />
    <vType id="random_003" vClass="passenger" color="blue" />
	<vType id="default_022" vClass="passenger" color="red" />
    <vType id="random_022" vClass="passenger" color="blue" />
	<vType id="default_021" vClass="passenger" color="red" />
    <vType id="random_021" vClass="passenger" color="blue" />
	<vType id="default_020" vClass="passenger" color="red" />
    <vType id="random_020" vClass="passenger" color="blue" />
	<vType id="default_019" vClass="passenger" color="red" />
    <vType id="random_019" vClass="passenger" color="blue" />
	<vType id="default_018" vClass="passenger" color="red" />
    <vType id="random_018" vClass="passenger" color="blue" />
	<vType id="default_002" vClass="passenger" color="red" />
    <vType id="random_002" vClass="passenger" color="blue" />
	<vType id="default_001" vClass="passenger" color="red" />
    <vType id="random_001" vClass="passenger" color="blue" />
<trip id="0" type="default_016" depart="57600" from="25149219#1" to="104012170" /><trip id="1" type="default_017" depart="57601.2" from="653473569#5" to="124812857#0" /><trip id="2" type="default_016" depart="57602.399999999994" from="25149219#1" to="-653473569#5" /><trip id="3" type="default_017" depart="57603.59999999999" from="104010354" to="124812857#0" /><trip id="4" type="random_017" depart="57604.79999999999" from="653473569#5" to="124812857#0" /><trip id="5" type="default_017" depart="57605.999999999985" from="201963537#1" to="-653473569#5" /><trip id="6" type="default_016" depart="57607.19999999998" from="201963537#1" to="-653473569#5" /><trip id="7" type="default_017" depart="57608.39999999998" from="201963537#1" to="-653473569#5" /><trip id="8" type="default_017" depart="57609.59999999998" from="25149219#1" to="-653473569#5" /><trip id="9" type="default_017" depart="57610.799999999974" from="201963537#1" to="-653473569#5" /><trip id="10" type="random_017" depart="57611.99999999997" from="653473569#5" to="124812857#0" /><trip id="11" type="default_017" depart="57613.19999999997" from="201963537#1" to="-653473569#5" /><trip id="12" type="random_017" depart="57614.399999999965" from="104010354" to="124812857#0" /><trip id="13" type="default_016" depart="57615.59999999996" from="25149219#1" to="-653473569#5" /><trip id="14" type="default_017" depart="57616.79999999996" from="201963537#1" to="-653473569#5" /><trip id="15" type="default_017" depart="57617.999999999956" from="653473569#5" to="124812857#0" /><trip id="16" type="default_017" depart="57619.19999999995" from="25149219#1" to="-653473569#5" /><trip id="17" type="default_017" depart="57620.39999999995" from="104010354" to="124812857#0" /><trip id="18" type="default_016" depart="57621.59999999995" from="25149219#1" to="-653473569#5" /><trip id="19" type="default_016" depart="57622.799999999945" from="25149219#1" to="-653473569#5" /><trip id="20" type="default_017" depart="57623.99999999994" from="653473569#5" to="124812857#0" /><trip id="21" type="default_017" depart="57625.19999999994" from="201963537#1" to="-653473569#5" /><trip id="22" type="default_017" depart="57626.399999999936" from="653473569#5" to="124812857#0" /><trip id="23" type="default_017" depart="57627.59999999993" from="104010354" to="124812857#0" /><trip id="24" type="random_017" depart="57628.79999999993" from="653473569#5" to="104012170" /><trip id="25" type="random_017" depart="57629.99999999993" from="201963537#1" to="104012170" /><trip id="26" type="default_017" depart="57631.199999999924" from="201963537#1" to="104012170" /><trip id="27" type="default_017" depart="57632.39999999992" from="201963537#1" to="104012170" /><trip id="28" type="default_016" depart="57633.59999999992" from="25149219#1" to="-653473569#5" /><trip id="29" type="default_016" depart="57634.799999999916" from="104010354" to="124812857#0" /><trip id="30" type="default_016" depart="57635.99999999991" from="201963537#1" to="-653473569#5" /><trip id="31" type="default_017" depart="57637.19999999991" from="201963537#1" to="-653473569#5" /><trip id="32" type="default_016" depart="57638.39999999991" from="201963537#1" to="104012170" /><trip id="33" type="default_016" depart="57639.599999999904" from="104010354" to="124812857#0" /><trip id="34" type="random_017" depart="57640.7999999999" from="653473569#5" to="124812857#0" /><trip id="35" type="default_016" depart="57641.9999999999" from="104010354" to="124812857#0" /><trip id="36" type="default_017" depart="57643.199999999895" from="201963537#1" to="104012170" /><trip id="37" type="default_016" depart="57644.39999999989" from="201963537#1" to="104012170" /><trip id="38" type="default_016" depart="57645.59999999989" from="201963537#1" to="104012170" /><trip id="39" type="default_017" depart="57646.79999999989" from="653473569#5" to="124812857#0" /><trip id="40" type="bus" depart="57647.99999999988" from="653473569#5" to="124812857#0" /><trip id="41" type="default_017" depart="57649.19999999988" from="201963537#1" to="104012170" /><trip id="42" type="default_017" depart="57650.39999999988" from="653473569#5" to="124812857#0" /><trip id="43" type="default_017" depart="57651.599999999875" from="201963537#1" to="104012170" /><trip id="44" type="default_017" depart="57652.79999999987" from="653473569#5" to="124812857#0" /><trip id="45" type="default_017" depart="57653.99999999987" from="25149219#1" to="-653473569#5" /><trip id="46" type="default_017" depart="57655.199999999866" from="201963537#1" to="104012170" /><trip id="47" type="default_017" depart="57656.39999999986" from="201963537#1" to="104012170" /><trip id="48" type="default_016" depart="57657.59999999986" from="653473569#5" to="104012170" /><trip id="49" type="random_016" depart="57658.79999999986" from="201963537#1" to="104012170" /><trip id="50" type="default_016" depart="57659.999999999854" from="104010354" to="124812857#0" /><trip id="51" type="default_016" depart="57661.19999999985" from="201963537#1" to="104012170" /><trip id="52" type="default_017" depart="57662.39999999985" from="201963537#1" to="104012170" /><trip id="53" type="random_016" depart="57663.599999999846" from="653473569#5" to="124812857#0" /><trip id="54" type="default_016" depart="57664.79999999984" from="201963537#1" to="-653473569#5" /><trip id="55" type="default_017" depart="57665.99999999984" from="201963537#1" to="-653473569#5" /><trip id="56" type="default_017" depart="57667.19999999984" from="653473569#5" to="124812857#0" /><trip id="57" type="default_015" depart="57668.399999999834" from="201963537#1" to="104012170" /><trip id="58" type="default_016" depart="57669.59999999983" from="104010354" to="124812857#0" /><trip id="59" type="default_017" depart="57670.79999999983" from="201963537#1" to="104012170" /><trip id="60" type="default_017" depart="57671.999999999825" from="25149219#1" to="104012170" /><trip id="61" type="default_017" depart="57673.19999999982" from="201963537#1" to="104012170" /><trip id="62" type="default_016" depart="57674.39999999982" from="104010354" to="124812857#0" /><trip id="63" type="default_017" depart="57675.59999999982" from="104010354" to="124812857#0" /><trip id="64" type="random_016" depart="57676.799999999814" from="653473569#5" to="124812857#0" /><trip id="65" type="default_017" depart="57677.99999999981" from="104010354" to="124812857#0" /><trip id="66" type="default_017" depart="57679.19999999981" from="201963537#1" to="104012170" /><trip id="67" type="default_017" depart="57680.399999999805" from="201963537#1" to="104012170" /><trip id="68" type="default_017" depart="57681.5999999998" from="201963537#1" to="104012170" /><trip id="69" type="default_016" depart="57682.7999999998" from="104010354" to="124812857#0" /><trip id="70" type="default_017" depart="57683.999999999796" from="25149219#1" to="-653473569#5" /><trip id="71" type="default_017" depart="57685.19999999979" from="201963537#1" to="-653473569#5" /><trip id="72" type="default_017" depart="57686.39999999979" from="653473569#5" to="104012170" /><trip id="73" type="default_017" depart="57687.59999999979" from="653473569#5" to="124812857#0" /><trip id="74" type="default_016" depart="57688.799999999785" from="201963537#1" to="-653473569#5" /><trip id="75" type="default_016" depart="57689.99999999978" from="653473569#5" to="124812857#0" /><trip id="76" type="default_016" depart="57691.19999999978" from="201963537#1" to="104012170" /><trip id="77" type="default_016" depart="57692.399999999776" from="25149219#1" to="-653473569#5" /><trip id="78" type="default_017" depart="57693.59999999977" from="653473569#5" to="104012170" /><trip id="79" type="default_017" depart="57694.79999999977" from="104010354" to="124812857#0" /><trip id="80" type="random_016" depart="57695.99999999977" from="201963537#1" to="-653473569#5" /><trip id="81" type="default_017" depart="57697.199999999764" from="201963537#1" to="104012170" /><trip id="82" type="default_017" depart="57698.39999999976" from="104010354" to="124812857#0" /><trip id="83" type="default_016" depart="57699.59999999976" from="201963537#1" to="-653473569#5" /><trip id="84" type="random_016" depart="57700.799999999756" from="201963537#1" to="-653473569#5" /><trip id="85" type="default_016" depart="57701.99999999975" from="201963537#1" to="-653473569#5" /><trip id="86" type="default_016" depart="57703.19999999975" from="104010354" to="124812857#0" /><trip id="87" type="default_016" depart="57704.39999999975" from="653473569#5" to="124812857#0" /><trip id="88" type="default_016" depart="57705.599999999744" from="25149219#1" to="104012170" /><trip id="89" type="default_016" depart="57706.79999999974" from="201963537#1" to="104012170" /><trip id="90" type="default_017" depart="57707.99999999974" from="653473569#5" to="104012170" /><trip id="91" type="default_017" depart="57709.199999999735" from="201963537#1" to="104012170" /><trip id="92" type="default_016" depart="57710.39999999973" from="201963537#1" to="104012170" /><trip id="93" type="default_017" depart="57711.59999999973" from="201963537#1" to="104012170" /><trip id="94" type="default_016" depart="57712.79999999973" from="653473569#5" to="124812857#0" /><trip id="95" type="random_017" depart="57713.99999999972" from="201963537#1" to="-653473569#5" /><trip id="96" type="default_017" depart="57715.19999999972" from="25149219#1" to="-653473569#5" /><trip id="97" type="default_017" depart="57716.39999999972" from="653473569#5" to="104012170" /><trip id="98" type="default_017" depart="57717.599999999715" from="201963537#1" to="104012170" /><trip id="99" type="random_017" depart="57718.79999999971" from="104010354" to="124812857#0" /><trip id="100" type="random_017" depart="57719.99999999971" from="201963537#1" to="104012170" /><trip id="101" type="random_017" depart="57721.199999999706" from="653473569#5" to="104012170" /><trip id="102" type="default_017" depart="57722.3999999997" from="201963537#1" to="-653473569#5" /><trip id="103" type="default_017" depart="57723.5999999997" from="201963537#1" to="104012170" /><trip id="104" type="default_017" depart="57724.7999999997" from="104010354" to="124812857#0" /><trip id="105" type="default_017" depart="57725.999999999694" from="104010354" to="124812857#0" /><trip id="106" type="default_016" depart="57727.19999999969" from="201963537#1" to="-653473569#5" /><trip id="107" type="default_016" depart="57728.39999999969" from="201963537#1" to="104012170" /><trip id="108" type="default_016" depart="57729.599999999686" from="201963537#1" to="104012170" /><trip id="109" type="default_016" depart="57730.79999999968" from="653473569#5" to="104012170" /><trip id="110" type="default_017" depart="57731.99999999968" from="201963537#1" to="104012170" /><trip id="111" type="default_017" depart="57733.19999999968" from="25149219#1" to="-653473569#5" /><trip id="112" type="default_017" depart="57734.399999999674" from="104010354" to="124812857#0" /><trip id="113" type="default_016" depart="57735.59999999967" from="201963537#1" to="104012170" /><trip id="114" type="default_017" depart="57736.79999999967" from="653473569#5" to="104012170" /><trip id="115" type="default_016" depart="57737.999999999665" from="653473569#5" to="104012170" /><trip id="116" type="default_016" depart="57739.19999999966" from="201963537#1" to="-653473569#5" /><trip id="117" type="random_016" depart="57740.39999999966" from="201963537#1" to="104012170" /><trip id="118" type="default_016" depart="57741.59999999966" from="201963537#1" to="-653473569#5" /><trip id="119" type="default_017" depart="57742.799999999654" from="201963537#1" to="104012170" /><trip id="120" type="default_016" depart="57743.99999999965" from="201963537#1" to="-653473569#5" /><trip id="121" type="default_017" depart="57745.19999999965" from="104010354" to="124812857#0" /><trip id="122" type="default_017" depart="57746.399999999645" from="201963537#1" to="201963537#1" /><trip id="123" type="default_017" depart="57747.59999999964" from="653473569#5" to="124812857#0" /><trip id="124" type="default_017" depart="57748.79999999964" from="104010354" to="124812857#0" /><trip id="125" type="default_017" depart="57749.999999999636" from="104010354" to="124812857#0" /><trip id="126" type="default_017" depart="57751.19999999963" from="201963537#1" to="104012170" /><trip id="127" type="default_017" depart="57752.39999999963" from="25149219#1" to="-653473569#5" /><trip id="128" type="default_016" depart="57753.59999999963" from="104010354" to="124812857#0" /><trip id="129" type="default_017" depart="57754.799999999625" from="104010354" to="124812857#0" /><trip id="130" type="default_017" depart="57755.99999999962" from="25149219#1" to="-653473569#5" /><trip id="131" type="default_016" depart="57757.19999999962" from="25149219#1" to="-653473569#5" /><trip id="132" type="default_017" depart="57758.399999999616" from="653473569#5" to="104012170" /><trip id="133" type="default_016" depart="57759.59999999961" from="25149219#1" to="-653473569#5" /><trip id="134" type="default_017" depart="57760.79999999961" from="25149219#1" to="-653473569#5" /><trip id="135" type="default_017" depart="57761.99999999961" from="653473569#5" to="124812857#0" /><trip id="136" type="default_017" depart="57763.199999999604" from="104010354" to="124812857#0" /><trip id="137" type="default_017" depart="57764.3999999996" from="201963537#1" to="104012170" /><trip id="138" type="default_016" depart="57765.5999999996" from="201963537#1" to="-653473569#5" /><trip id="139" type="default_017" depart="57766.799999999595" from="104010354" to="124812857#0" /><trip id="140" type="default_017" depart="57767.99999999959" from="201963537#1" to="104012170" /><trip id="141" type="default_017" depart="57769.19999999959" from="201963537#1" to="-653473569#5" /><trip id="142" type="random_017" depart="57770.39999999959" from="201963537#1" to="104012170" /><trip id="143" type="default_017" depart="57771.599999999584" from="104010354" to="124812857#0" /><trip id="144" type="default_017" depart="57772.79999999958" from="201963537#1" to="104012170" /><trip id="145" type="default_017" depart="57773.99999999958" from="104010354" to="124812857#0" /><trip id="146" type="default_017" depart="57775.199999999575" from="104010354" to="124812857#0" /><trip id="147" type="default_017" depart="57776.39999999957" from="653473569#5" to="124812857#0" /><trip id="148" type="default_017" depart="57777.59999999957" from="201963537#1" to="104012170" /><trip id="149" type="default_016" depart="57778.799999999566" from="104010354" to="124812857#0" /><trip id="150" type="default_017" depart="57779.99999999956" from="201963537#1" to="-653473569#5" /><trip id="151" type="default_017" depart="57781.19999999956" from="104010354" to="124812857#0" /><trip id="152" type="default_016" depart="57782.39999999956" from="653473569#5" to="104012170" /><trip id="153" type="default_017" depart="57783.599999999555" from="201963537#1" to="104012170" /><trip id="154" type="default_016" depart="57784.79999999955" from="201963537#1" to="104012170" /><trip id="155" type="default_016" depart="57785.99999999955" from="25149219#1" to="-653473569#5" /><trip id="156" type="default_016" depart="57787.199999999546" from="25149219#1" to="-653473569#5" /><trip id="157" type="default_017" depart="57788.39999999954" from="201963537#1" to="-653473569#5" /><trip id="158" type="random_017" depart="57789.59999999954" from="104010354" to="124812857#0" /><trip id="159" type="default_017" depart="57790.79999999954" from="25149219#1" to="-653473569#5" /><trip id="160" type="random_017" depart="57791.999999999534" from="104010354" to="124812857#0" /><trip id="161" type="default_017" depart="57793.19999999953" from="653473569#5" to="124812857#0" /><trip id="162" type="default_017" depart="57794.39999999953" from="201963537#1" to="-653473569#5" /><trip id="163" type="random_017" depart="57795.599999999526" from="653473569#5" to="124812857#0" /><trip id="164" type="default_016" depart="57796.79999999952" from="653473569#5" to="104012170" /><trip id="165" type="default_018" depart="57797.99999999952" from="653473569#5" to="124812857#0" /><trip id="166" type="default_017" depart="57799.19999999952" from="653473569#5" to="104012170" /><trip id="167" type="default_016" depart="57800.399999999514" from="201963537#1" to="104012170" /><trip id="168" type="default_016" depart="57801.59999999951" from="104010354" to="124812857#0" /><trip id="169" type="default_017" depart="57802.79999999951" from="104010354" to="-653473569#5" /><trip id="170" type="default_017" depart="57803.999999999505" from="104010354" to="124812857#0" /><trip id="171" type="default_016" depart="57805.1999999995" from="201963537#1" to="104012170" /><trip id="172" type="default_016" depart="57806.3999999995" from="201963537#1" to="-653473569#5" /><trip id="173" type="default_016" depart="57807.5999999995" from="201963537#1" to="104012170" /><trip id="174" type="random_016" depart="57808.79999999949" from="653473569#5" to="124812857#0" /><trip id="175" type="default_016" depart="57809.99999999949" from="201963537#1" to="-653473569#5" /><trip id="176" type="default_017" depart="57811.19999999949" from="201963537#1" to="-653473569#5" /><trip id="177" type="default_017" depart="57812.399999999485" from="104010354" to="124812857#0" /><trip id="178" type="default_016" depart="57813.59999999948" from="201963537#1" to="104012170" /><trip id="179" type="default_017" depart="57814.79999999948" from="201963537#1" to="104012170" /><trip id="180" type="default_017" depart="57815.999999999476" from="653473569#5" to="124812857#0" /><trip id="181" type="default_016" depart="57817.19999999947" from="201963537#1" to="-653473569#5" /><trip id="182" type="default_017" depart="57818.39999999947" from="201963537#1" to="104012170" /><trip id="183" type="random_016" depart="57819.59999999947" from="201963537#1" to="-653473569#5" /><trip id="184" type="default_017" depart="57820.799999999464" from="104010354" to="124812857#0" /><trip id="185" type="default_017" depart="57821.99999999946" from="104010354" to="124812857#0" /><trip id="186" type="default_016" depart="57823.19999999946" from="25149219#1" to="-653473569#5" /><trip id="187" type="default_017" depart="57824.399999999456" from="653473569#5" to="124812857#0" /><trip id="188" type="default_016" depart="57825.59999999945" from="201963537#1" to="104012170" /><trip id="189" type="default_017" depart="57826.79999999945" from="201963537#1" to="-653473569#5" /><trip id="190" type="default_016" depart="57827.99999999945" from="104010354" to="124812857#0" /><trip id="191" type="default_016" depart="57829.199999999444" from="201963537#1" to="104012170" /><trip id="192" type="default_017" depart="57830.39999999944" from="201963537#1" to="-653473569#5" /><trip id="193" type="default_016" depart="57831.59999999944" from="653473569#5" to="104012170" /><trip id="194" type="default_017" depart="57832.799999999435" from="104010354" to="124812857#0" /><trip id="195" type="default_017" depart="57833.99999999943" from="653473569#5" to="124812857#0" /><trip id="196" type="default_017" depart="57835.19999999943" from="201963537#1" to="104012170" /><trip id="197" type="default_016" depart="57836.39999999943" from="25149219#1" to="104012170" /><trip id="198" type="default_017" depart="57837.599999999424" from="201963537#1" to="-653473569#5" /><trip id="199" type="default_017" depart="57838.79999999942" from="653473569#5" to="124812857#0" /><trip id="200" type="default_017" depart="57839.99999999942" from="201963537#1" to="-653473569#5" /><trip id="201" type="default_017" depart="57841.199999999415" from="104010354" to="124812857#0" /><trip id="202" type="default_017" depart="57842.39999999941" from="25149219#1" to="-653473569#5" /><trip id="203" type="default_016" depart="57843.59999999941" from="25149219#1" to="-653473569#5" /><trip id="204" type="default_016" depart="57844.799999999406" from="104010354" to="124812857#0" /><trip id="205" type="default_015" depart="57845.9999999994" from="201963537#1" to="-653473569#5" /><trip id="206" type="default_017" depart="57847.1999999994" from="653473569#5" to="124812857#0" /><trip id="207" type="default_017" depart="57848.3999999994" from="201963537#1" to="104012170" /><trip id="208" type="default_017" depart="57849.599999999395" from="25149219#1" to="-653473569#5" /><trip id="209" type="default_016" depart="57850.79999999939" from="201963537#1" to="104012170" /><trip id="210" type="default_017" depart="57851.99999999939" from="104010354" to="-653473569#5" /><trip id="211" type="default_016" depart="57853.199999999386" from="201963537#1" to="104012170" /><trip id="212" type="random_017" depart="57854.39999999938" from="25149219#1" to="-653473569#5" /><trip id="213" type="default_017" depart="57855.59999999938" from="201963537#1" to="104012170" /><trip id="214" type="default_017" depart="57856.79999999938" from="201963537#1" to="104012170" /><trip id="215" type="default_017" depart="57857.999999999374" from="104010354" to="124812857#0" /><trip id="216" type="default_017" depart="57859.19999999937" from="653473569#5" to="104012170" /><trip id="217" type="default_017" depart="57860.39999999937" from="104010354" to="124812857#0" /><trip id="218" type="default_016" depart="57861.599999999366" from="25149219#1" to="-653473569#5" /><trip id="219" type="default_017" depart="57862.79999999936" from="201963537#1" to="-653473569#5" /><trip id="220" type="default_017" depart="57863.99999999936" from="104010354" to="124812857#0" /><trip id="221" type="default_017" depart="57865.19999999936" from="104010354" to="124812857#0" /><trip id="222" type="default_017" depart="57866.399999999354" from="653473569#5" to="124812857#0" /><trip id="223" type="default_017" depart="57867.59999999935" from="201963537#1" to="104012170" /><trip id="224" type="default_017" depart="57868.79999999935" from="201963537#1" to="104012170" /><trip id="225" type="default_017" depart="57869.999999999345" from="201963537#1" to="-653473569#5" /><trip id="226" type="default_017" depart="57871.19999999934" from="653473569#5" to="124812857#0" /><trip id="227" type="default_016" depart="57872.39999999934" from="201963537#1" to="104012170" /><trip id="228" type="default_017" depart="57873.59999999934" from="653473569#5" to="124812857#0" /><trip id="229" type="default_017" depart="57874.79999999933" from="653473569#5" to="124812857#0" /><trip id="230" type="default_016" depart="57875.99999999933" from="104010354" to="124812857#0" /><trip id="231" type="default_017" depart="57877.19999999933" from="104010354" to="-653473569#5" /><trip id="232" type="random_017" depart="57878.399999999325" from="104010354" to="124812857#0" /><trip id="233" type="bus" depart="57879.59999999932" from="653473569#5" to="124812857#0" /><trip id="234" type="random_017" depart="57880.79999999932" from="104010354" to="124812857#0" /><trip id="235" type="default_017" depart="57881.999999999316" from="201963537#1" to="104012170" /><trip id="236" type="default_017" depart="57883.19999999931" from="201963537#1" to="104012170" /><trip id="237" type="default_017" depart="57884.39999999931" from="25149219#1" to="104012170" /><trip id="238" type="default_017" depart="57885.59999999931" from="104010354" to="124812857#0" /><trip id="239" type="random_017" depart="57886.799999999304" from="653473569#5" to="124812857#0" /><trip id="240" type="default_016" depart="57887.9999999993" from="104010354" to="-653473569#5" /><trip id="241" type="default_016" depart="57889.1999999993" from="201963537#1" to="-653473569#5" /><trip id="242" type="default_017" depart="57890.399999999296" from="201963537#1" to="104012170" /><trip id="243" type="default_016" depart="57891.59999999929" from="653473569#5" to="124812857#0" /><trip id="244" type="default_016" depart="57892.79999999929" from="104010354" to="124812857#0" /><trip id="245" type="default_016" depart="57893.99999999929" from="201963537#1" to="104012170" /><trip id="246" type="default_017" depart="57895.199999999284" from="653473569#5" to="104012170" /><trip id="247" type="random_016" depart="57896.39999999928" from="201963537#1" to="-653473569#5" /><trip id="248" type="default_017" depart="57897.59999999928" from="653473569#5" to="124812857#0" /><trip id="249" type="default_017" depart="57898.799999999275" from="201963537#1" to="104012170" /><trip id="250" type="random_017" depart="57899.99999999927" from="201963537#1" to="104012170" /><trip id="251" type="default_017" depart="57901.19999999927" from="653473569#5" to="124812857#0" /><trip id="252" type="default_016" depart="57902.39999999927" from="201963537#1" to="104012170" /><trip id="253" type="default_017" depart="57903.599999999264" from="25149219#1" to="-653473569#5" /><trip id="254" type="default_017" depart="57904.79999999926" from="201963537#1" to="-653473569#5" /><trip id="255" type="default_016" depart="57905.99999999926" from="25149219#1" to="-653473569#5" /><trip id="256" type="default_016" depart="57907.199999999255" from="104010354" to="-653473569#5" /><trip id="257" type="default_017" depart="57908.39999999925" from="201963537#1" to="104012170" /><trip id="258" type="default_016" depart="57909.59999999925" from="25149219#1" to="-653473569#5" /><trip id="259" type="default_016" depart="57910.799999999246" from="201963537#1" to="104012170" /><trip id="260" type="default_016" depart="57911.99999999924" from="201963537#1" to="104012170" /><trip id="261" type="default_017" depart="57913.19999999924" from="104010354" to="124812857#0" /><trip id="262" type="default_016" depart="57914.39999999924" from="201963537#1" to="104012170" /><trip id="263" type="default_017" depart="57915.599999999235" from="25149219#1" to="-653473569#5" /><trip id="264" type="default_017" depart="57916.79999999923" from="201963537#1" to="-653473569#5" /><trip id="265" type="random_016" depart="57917.99999999923" from="104010354" to="-653473569#5" /><trip id="266" type="default_016" depart="57919.199999999226" from="653473569#5" to="124812857#0" /><trip id="267" type="random_017" depart="57920.39999999922" from="201963537#1" to="-653473569#5" /><trip id="268" type="default_016" depart="57921.59999999922" from="201963537#1" to="104012170" /><trip id="269" type="default_017" depart="57922.79999999922" from="104010354" to="124812857#0" /><trip id="270" type="default_016" depart="57923.999999999214" from="201963537#1" to="104012170" /><trip id="271" type="default_016" depart="57925.19999999921" from="25149219#1" to="-653473569#5" /><trip id="272" type="default_016" depart="57926.39999999921" from="25149219#1" to="104012170" /><trip id="273" type="default_016" depart="57927.599999999205" from="653473569#5" to="124812857#0" /><trip id="274" type="default_017" depart="57928.7999999992" from="201963537#1" to="-653473569#5" /><trip id="275" type="default_017" depart="57929.9999999992" from="104010354" to="124812857#0" /><trip id="276" type="default_017" depart="57931.1999999992" from="653473569#5" to="124812857#0" /><trip id="277" type="default_017" depart="57932.399999999194" from="201963537#1" to="-653473569#5" /><trip id="278" type=