<routes xmlns:xsi="http://www.w3.org/2001/XMLSchema-instance" xsi:noNamespaceSchemaLocation="http://sumo.dlr.de/xsd/routes_file.xsd">
	<vType id="bus" vClass="bus" color="green" />
	<vType id="default_017" vClass="passenger" color="red" />
    <vType id="random_017" vClass="passenger" color="blue" />
	<vType id="default_016" vClass="passenger" color="red" />
    <vType id="random_016" vClass="passenger" color="blue" />
	<vType id="default_015" vClass="passenger" color="red" />
    <vType id="random_015" vClass="passenger" color="blue" />
	<vType id="default_014" vClass="passenger" color="red" />
    <vType id="random_014" vClass="passenger" color="blue" />
	<vType id="default_013" vClass="passenger" color="red" />
    <vType id="random_013" vClass="passenger" color="blue" />
    <vType id="default_012" vClass="passenger" color="red" />
    <vType id="random_012" vClass="passenger" color="blue" />
	<vType id="default_011" vClass="passenger" color="red" />
    <vType id="random_011" vClass="passenger" color="blue" />
	<vType id="default_010" vClass="passenger" color="red" />
    <vType id="random_010" vClass="passenger" color="blue" />
	<vType id="default_009" vClass="passenger" color="red" />
    <vType id="random_009" vClass="passenger" color="blue" />
	<vType id="default_008" vClass="passenger" color="red" />
    <vType id="random_008" vClass="passenger" color="blue" />
	<vType id="default_007" vClass="passenger" color="red" />
    <vType id="random_007" vClass="passenger" color="blue" />
	<vType id="default_006" vClass="passenger" color="red" />
    <vType id="random_006" vClass="passenger" color="blue" />
	<vType id="default_005" vClass="passenger" color="red" />
    <vType id="random_005" vClass="passenger" color="blue" />
	<vType id="default_004" vClass="passenger" color="red" />
    <vType id="random_004" vClass="passenger" color="blue" />
	<vType id="default_003" vClass="passenger" color="red" />
    <vType id="random_003" vClass="passenger" color="blue" />
	<vType id="default_022" vClass="passenger" color="red" />
    <vType id="random_022" vClass="passenger" color="blue" />
	<vType id="default_021" vClass="passenger" color="red" />
    <vType id="random_021" vClass="passenger" color="blue" />
	<vType id="default_020" vClass="passenger" color="red" />
    <vType id="random_020" vClass="passenger" color="blue" />
	<vType id="default_019" vClass="passenger" color="red" />
    <vType id="random_019" vClass="passenger" color="blue" />
	<vType id="default_018" vClass="passenger" color="red" />
    <vType id="random_018" vClass="passenger" color="blue" />
	<vType id="default_002" vClass="passenger" color="red" />
    <vType id="random_002" vClass="passenger" color="blue" />
	<vType id="default_001" vClass="passenger" color="red" />
    <vType id="random_001" vClass="passenger" color="blue" />
<trip id="0" type="default_017" depart="57600" from="124812856#0" to="-128361102#1" /><trip id="1" type="default_017" depart="57600.6" from="124812856#0" to="32978638#0" /><trip id="2" type="default_016" depart="57601.2" from="128361109#1" to="386687235" /><trip id="3" type="default_016" depart="57601.799999999996" from="128361109#1" to="-315358242#0" /><trip id="4" type="default_017" depart="57602.399999999994" from="386687232#0" to="306240162#0" /><trip id="5" type="random_017" depart="57602.99999999999" from="201950247#7" to="201238729#3" /><trip id="6" type="default_016" depart="57603.59999999999" from="-32978638#0" to="-315358244" /><trip id="7" type="default_016" depart="57604.19999999999" from="10425609#0" to="18809673#0" /><trip id="8" type="default_017" depart="57604.79999999999" from="315358254#0" to="201238729#3" /><trip id="9" type="default_017" depart="57605.39999999999" from="40888359" to="-315358254#1" /><trip id="10" type="default_016" depart="57605.999999999985" from="315358244" to="386687235" /><trip id="11" type="default_016" depart="57606.599999999984" from="315358254#0" to="-26642362#1" /><trip id="12" type="default_016" depart="57607.19999999998" from="386687232#0" to="306240162#0" /><trip id="13" type="default_017" depart="57607.79999999998" from="128361102#0" to="201956820" /><trip id="14" type="default_017" depart="57608.39999999998" from="315358244" to="386687235" /><trip id="15" type="default_017" depart="57608.99999999998" from="386687232#0" to="306240162#0" /><trip id="16" type="default_016" depart="57609.59999999998" from="24693977#1" to="201956820" /><trip id="17" type="default_017" depart="57610.199999999975" from="124812856#0" to="-128361102#1" /><trip id="18" type="default_016" depart="57610.799999999974" from="-306240162#1" to="386687235" /><trip id="19" type="default_017" depart="57611.39999999997" from="386687232#0" to="306240162#0" /><trip id="20" type="default_017" depart="57611.99999999997" from="266565295#5" to="-315358254#1" /><trip id="21" type="default_016" depart="57612.59999999997" from="-32978638#0" to="-315358244" /><trip id="22" type="default_017" depart="57613.19999999997" from="-32978638#0" to="306240162#0" /><trip id="23" type="default_017" depart="57613.79999999997" from="-18809673#6" to="201956820" /><trip id="24" type="default_017" depart="57614.399999999965" from="-18809673#6" to="-266565295#5" /><trip id="25" type="default_017" depart="57614.99999999996" from="-32978638#0" to="-315358244" /><trip id="26" type="default_017" depart="57615.59999999996" from="124812856#0" to="-315358254#1" /><trip id="27" type="default_017" depart="57616.19999999996" from="-30482615#4" to="-128361102#1" /><trip id="28" type="default_017" depart="57616.79999999996" from="128361109#1" to="386687235" /><trip id="29" type="default_018" depart="57617.39999999996" from="-306240162#1" to="386687235" /><trip id="30" type="default_017" depart="57617.999999999956" from="315358244" to="386687235" /><trip id="31" type="default_017" depart="57618.599999999955" from="-25117391#1" to="32978638#0" /><trip id="32" type="default_016" depart="57619.19999999995" from="399835085#1" to="201956820" /><trip id="33" type="default_016" depart="57619.79999999995" from="128361102#0" to="201956811#0" /><trip id="34" type="default_016" depart="57620.39999999995" from="272042143" to="306240162#0" /><trip id="35" type="default_017" depart="57620.99999999995" from="128361109#1" to="-315358254#1" /><trip id="36" type="default_016" depart="57621.59999999995" from="386687232#0" to="18809673#0" /><trip id="37" type="default_016" depart="57622.199999999946" from="124812856#0" to="-315358244" /><trip id="38" type="default_017" depart="57622.799999999945" from="124812856#0" to="-83304175#2" /><trip id="39" type="default_017" depart="57623.39999999994" from="-306240162#1" to="386687235" /><trip id="40" type="default_016" depart="57623.99999999994" from="386687232#0" to="306240162#0" /><trip id="41" type="default_017" depart="57624.59999999994" from="-306240162#1" to="32978638#0" /><trip id="42" type="default_016" depart="57625.19999999994" from="124812856#0" to="306240162#0" /><trip id="43" type="default_017" depart="57625.79999999994" from="124812856#0" to="399835085#1" /><trip id="44" type="default_017" depart="57626.399999999936" from="-41203916#3" to="32978638#0" /><trip id="45" type="default_016" depart="57626.999999999935" from="24599188#0.94" to="-315358254#1" /><trip id="46" type="default_016" depart="57627.59999999993" from="386687232#0" to="201238729#3" /><trip id="47" type="default_017" depart="57628.19999999993" from="-40888351#2" to="32978638#0" /><trip id="48" type="default_016" depart="57628.79999999993" from="272042143" to="170018165#2" /><trip id="49" type="default_016" depart="57629.39999999993" from="-32978638#0" to="-315358244" /><trip id="50" type="default_017" depart="57629.99999999993" from="128361102#0" to="201956811#0" /><trip id="51" type="default_016" depart="57630.599999999926" from="201201945#0" to="32978638#0" /><trip id="52" type="default_016" depart="57631.199999999924" from="128361109#1" to="386687235" /><trip id="53" type="default_017" depart="57631.79999999992" from="24599188#0.94" to="-315358244" /><trip id="54" type="default_016" depart="57632.39999999992" from="128361109#1" to="-315358244" /><trip id="55" type="default_017" depart="57632.99999999992" from="-18809673#6" to="386687235" /><trip id="56" type="default_017" depart="57633.59999999992" from="224251774#1" to="272042145" /><trip id="57" type="random_017" depart="57634.19999999992" from="124812856#1" to="201956810" /><trip id="58" type="default_016" depart="57634.799999999916" from="18813598#2" to="-315358254#1" /><trip id="59" type="default_016" depart="57635.399999999914" from="-32978638#0" to="-315358244" /><trip id="60" type="default_017" depart="57635.99999999991" from="386687232#0" to="-315358254#1" /><trip id="61" type="default_016" depart="57636.59999999991" from="10425609#0" to="-128361102#1" /><trip id="62" type="default_017" depart="57637.19999999991" from="315358244" to="32978638#0" /><trip id="63" type="default_016" depart="57637.79999999991" from="272042143" to="201238729#3" /><trip id="64" type="default_017" depart="57638.39999999991" from="386687232#0" to="-315358244" /><trip id="65" type="default_017" depart="57638.999999999905" from="-18809673#6" to="201956820" /><trip id="66" type="default_017" depart="57639.599999999904" from="272042143" to="306240162#0" /><trip id="67" type="default_017" depart="57640.1999999999" from="124812856#0" to="18809673#0" /><trip id="68" type="default_016" depart="57640.7999999999" from="201238726#0.117" to="386687235" /><trip id="69" type="random_017" depart="57641.3999999999" from="10425609#0" to="201956820" /><trip id="70" type="default_016" depart="57641.9999999999" from="128361102#0" to="201956820" /><trip id="71" type="default_017" depart="57642.5999999999" from="272042143" to="201238729#3" /><trip id="72" type="default_016" depart="57643.199999999895" from="-24634509#7" to="-266565295#5" /><trip id="73" type="default_017" depart="57643.799999999894" from="201950247#8" to="386687235" /><trip id="74" type="default_017" depart="57644.39999999989" from="128361109#1" to="-315358244" /><trip id="75" type="default_017" depart="57644.99999999989" from="315358254#0" to="-128361102#1" /><trip id="76" type="default_017" depart="57645.59999999989" from="315358244" to="386687235" /><trip id="77" type="default_016" depart="57646.19999999989" from="272042143" to="201238729#3" /><trip id="78" type="default_016" depart="57646.79999999989" from="10425609#0" to="-128361102#1" /><trip id="79" type="default_016" depart="57647.399999999885" from="386687232#0" to="399835085#1" /><trip id="80" type="default_017" depart="57647.99999999988" from="124812856#0" to="-315358254#1" /><trip id="81" type="default_017" depart="57648.59999999988" from="201201945#2" to="160314346#0" /><trip id="82" type="default_016" depart="57649.19999999988" from="-32978638#0" to="-315358244" /><trip id="83" type="random_017" depart="57649.79999999988" from="124812856#0" to="201956810" /><trip id="84" type="default_017" depart="57650.39999999988" from="386687232#0" to="315358257#0" /><trip id="85" type="default_018" depart="57650.999999999876" from="-306240162#1" to="386687235" /><trip id="86" type="random_017" depart="57651.599999999875" from="128361102#0" to="201956811#0" /><trip id="87" type="default_017" depart="57652.19999999987" from="124812856#0" to="24634510#7" /><trip id="88" type="default_017" depart="57652.79999999987" from="-18809673#6" to="-266565295#5" /><trip id="89" type="default_017" depart="57653.39999999987" from="272042143" to="399835085#1" /><trip id="90" type="default_016" depart="57653.99999999987" from="40888354#1" to="-315358244" /><trip id="91" type="default_016" depart="57654.59999999987" from="-32978638#0" to="-315358244" /><trip id="92" type="default_016" depart="57655.199999999866" from="386687232#0" to="-315358244" /><trip id="93" type="default_018" depart="57655.799999999865" from="-32978638#0" to="-266565295#5" /><trip id="94" type="default_016" depart="57656.39999999986" from="-32978638#0" to="-315358244" /><trip id="95" type="default_016" depart="57656.99999999986" from="128361109#1" to="-266565295#5" /><trip id="96" type="default_016" depart="57657.59999999986" from="315358244" to="-201238724" /><trip id="97" type="default_017" depart="57658.19999999986" from="-32978638#0" to="-201950259#6" /><trip id="98" type="default_016" depart="57658.79999999986" from="10425609#0" to="-128361102#1" /><trip id="99" type="default_017" depart="57659.399999999856" from="386687232#0" to="306240162#0" /><trip id="100" type="default_017" depart="57659.999999999854" from="-32978638#0" to="-315358244" /><trip id="101" type="default_016" depart="57660.59999999985" from="386687232#0" to="399835085#1" /><trip id="102" type="default_017" depart="57661.19999999985" from="386687232#0" to="-315358254#1" /><trip id="103" type="default_017" depart="57661.79999999985" from="-306240162#1" to="386687235" /><trip id="104" type="default_016" depart="57662.39999999985" from="128361102#0" to="201956811#0" /><trip id="105" type="default_017" depart="57662.99999999985" from="-18809673#6" to="-266565295#5" /><trip id="106" type="default_016" depart="57663.599999999846" from="-306240162#1" to="-266565295#5" /><trip id="107" type="default_017" depart="57664.199999999844" from="-32978638#0" to="306240162#0" /><trip id="108" type="default_016" depart="57664.79999999984" from="10425609#0" to="18809673#0" /><trip id="109" type="default_016" depart="57665.39999999984" from="272042143" to="-315358254#1" /><trip id="110" type="default_016" depart="57665.99999999984" from="128361109#1" to="-22724699#1" /><trip id="111" type="default_017" depart="57666.59999999984" from="-18809673#6" to="-266565295#5" /><trip id="112" type="default_016" depart="57667.19999999984" from="124812856#0" to="-315358251#0" /><trip id="113" type="default_016" depart="57667.799999999836" from="128361109#1" to="-24634510#5" /><trip id="114" type="default_016" depart="57668.399999999834" from="128361109#1" to="386687235" /><trip id="115" type="default_016" depart="57668.99999999983" from="-306240162#1" to="402600768#1" /><trip id="116" type="default_016" depart="57669.59999999983" from="-32978638#0" to="-315358254#1" /><trip id="117" type="default_017" depart="57670.19999999983" from="128361109#1" to="272042145" /><trip id="118" type="default_018" depart="57670.79999999983" from="128361102#0" to="201956820" /><trip id="119" type="random_017" depart="57671.39999999983" from="30482614" to="30482615#1" /><trip id="120" type="default_017" depart="57671.999999999825" from="124812856#0" to="306240162#0" /><trip id="121" type="default_017" depart="57672.599999999824" from="386687232#0" to="-315358254#1" /><trip id="122" type="default_017" depart="57673.19999999982" from="10425609#0" to="-128361102#1" /><trip id="123" type="default_016" depart="57673.79999999982" from="272042143" to="201238729#3" /><trip id="124" type="default_017" depart="57674.39999999982" from="10425609#0" to="18809673#0" /><trip id="125" type="default_017" depart="57674.99999999982" from="124812856#0" to="-128361102#1" /><trip id="126" type="bus" depart="57675.59999999982" from="-32978638#0" to="-315358244" /><trip id="127" type="default_017" depart="57676.199999999815" from="10425609#0" to="18809673#0" /><trip id="128" type="default_017" depart="57676.799999999814" from="128361102#0" to="201956811#0" /><trip id="129" type="default_017" depart="57677.39999999981" from="-24634511" to="306240162#0" /><trip id="130" type="random_016" depart="57677.99999999981" from="124812856#0" to="201956810" /><trip id="131" type="default_017" depart="57678.59999999981" from="124812856#0" to="-83304175#2" /><trip id="132" type="default_017" depart="57679.19999999981" from="266565295#5" to="266565295#5" /><trip id="133" type="default_016" depart="57679.79999999981" from="10425609#0" to="18809673#0" /><trip id="134" type="default_017" depart="57680.399999999805" from="24599188#0.94" to="24634513#0" /><trip id="135" type="default_016" depart="57680.9999999998" from="386687232#0" to="201238729#3" /><trip id="136" type="default_016" depart="57681.5999999998" from="399835085#1" to="32978638#0" /><trip id="137" type="default_016" depart="57682.1999999998" from="-18809673#6" to="-266565295#5" /><trip id="138" type="default_016" depart="57682.7999999998" from="10425609#0" to="306240162#0" /><trip id="139" type="default_017" depart="57683.3999999998" from="-53396619#3" to="-315358244" /><trip id="140" type="default_017" depart="57683.999999999796" from="128361109#1" to="399835085#1" /><trip id="141" type="default_017" depart="57684.599999999795" from="124812856#0" to="-315358254#1" /><trip id="142" type="random_016" depart="57685.19999999979" from="266565295#5" to="168702040#1" /><trip id="143" type="default_017" depart="57685.79999999979" from="124812856#0" to="-315358244" /><trip id="144" type="default_016" depart="57686.39999999979" from="386687232#0" to="201238729#3" /><trip id="145" type="default_016" depart="57686.99999999979" from="-32978638#0" to="-315358244" /><trip id="146" type="default_017" depart="57687.59999999979" from="386687232#0" to="315358246" /><trip id="147" type="default_017" depart="57688.199999999786" from="315358244" to="32978638#0" /><trip id="148" type="default_017" depart="57688.799999999785" from="-32978638#0" to="-315392062#4" /><trip id="149" type="default_016" depart="57689.39999999978" from="399835085#1" to="26677541" /><trip id="150" type="default_017" depart="57689.99999999978" from="-201238718#1" to="-266565295#5" /><trip id="151" type="default_017" depart="57690.59999999978" from="10425609#0" to="18809673#0" /><trip id="152" type="default_016" depart="57691.19999999978" from="10425609#0" to="-128361102#1" /><trip id="153" type="default_016" depart="57691.79999999978" from="129379925" to="386687235" /><trip id="154" type="default_017" depart="57692.399999999776" from="-306240162#1" to="272042145" /><trip id="155" type="default_017" depart="57692.999999999774" from="-18809673#6" to="201956811#0" /><trip id="156" type="default_017" depart="57693.59999999977" from="10425609#0" to="-128361102#1" /><trip id="157" type="default_017" depart="57694.19999999977" from="-306240162#1" to="386687235" /><trip id="158" type="default_017" depart="57694.79999999977" from="128361109#1" to="272042145" /><trip id="159" type="default_017" depart="57695.39999999977" from="-306240162#1" to="272042145" /><trip id="160" type="default_017" depart="57695.99999999977" from="315358254#0" to="-28319300#2" /><trip id="161" type="default_017" depart="57696.599999999766" from="272042143" to="306240162#0" /><trip id="162" type="random_017" depart="57697.199999999764" from="-160314346#0" to="201956820" /><trip id="163" type="default_017" depart="57697.79999999976" from="10425609#0" to="306240162#0" /><trip id="164" type="default_018" depart="57698.39999999976" from="-233675413#2" to="201956820" /><trip id="165" type="default_016" depart="57698.99999999976" from="128361109#1" to="386687235" /><trip id="166" type="default_017" depart="57699.59999999976" from="-306240162#1" to="386687235" /><trip id="167" type="default_017" depart="57700.19999999976" from="-28111977#9" to="272042145" /><trip id="168" type="default_016" depart="57700.799999999756" from="128361109#1" to="386687235" /><trip id="169" type="default_016" depart="57701.399999999754" from="-32978638#0" to="306240162#0" /><trip id="170" type="default_016" depart="57701.99999999975" from="10425609#0" to="18809673#0" /><trip id="171" type="default_017" depart="57702.59999999975" from="128361102#0" to="201956820" /><trip id="172" type="default_016" depart="57703.19999999975" from="-306240162#1" to="-25190140#1" /><trip id="173" type="default_017" depart="57703.79999999975" from="10425609#0" to="306240162#0" /><trip id="174" type="default_017" depart="57704.39999999975" from="124812856#0" to="-128361102#1" /><trip id="175" type="default_017" depart="57704.999999999745" from="315358254#0" to="201238729#3" /><trip id="176" type="default_017" depart="57705.599999999744" from="128361102#0" to="201956820" /><trip id="177" type="bus" depart="57706.19999999974" from="-32978638#0" to="-315358244" /><trip id="178" type="default_016" depart="57706.79999999974" from="128361102#0" to="201956811#0" /><trip id="179" type="default_016" depart="57707.39999999974" from="-32978638#0" to="-315358244" /><trip id="180" type="default_017" depart="57707.99999999974" from="128361102#0" to="272042145" /><trip id="181" type="default_016" depart="57708.59999999974" from="10425609#0" to="306240162#0" /><trip id="182" type="default_017" depart="57709.199999999735" from="-24634511" to="201956820" /><trip id="183" type="default_016" depart="57709.799999999734" from="124812856#0" to="306240162#0" /><trip id="184" type="default_017" depart="57710.39999999973" from="128361109#1" to="386687235" /><trip id="185" type="default_016" depart="57710.99999999973" from="-18809673#6" to="-266565295#5" /><trip id="186" type="default_016" depart="57711.59999999973" from="25190140#1" to="18809673#0" /><trip id="187" type="default_016" depart="57712.19999999973" from="-32978638#0" to="-315358254#1" /><trip id="188" type="default_016" depart="57712.79999999973" from="10425609#0" to="18809673#0" /><trip id="189" type="default_017" depart="57713.399999999725" from="386687232#0" to="399835085#1" /><trip id="190" type="default_017" depart="57713.99999999972" from="124812856#0" to="-315358244" /><trip id="191" type="default_016" depart="57714.59999999972" from="315358244" to="32978638#0" /><trip id="192" type="default_016" depart="57715.19999999972" from="-306240162#1" to="272042145" /><trip id="193" type="default_017" depart="57715.79999999972" from="-306240162#1" to="272042145" /><trip id="194" type="default_017" depart="57716.39999999972" from="386687232#0" to="306240162#0" /><trip id="195" type="default_017" depart="57716.999999999716" from="386687232#0" to="306240162#0" /><trip id="196" type="default_017" depart="57717.599999999715" from="24608844" to="32978638#0" /><trip id="197" type="random_017" depart="57718.19999999971" from="10425609#0" to="-128361102#1" /><trip id="198" type="default_016" depart="57718.79999999971" from="-32978638#0" to="-315358254#1" /><trip id="199" type="default_016" depart="57719.39999999971" from="-306240162#1" to="176550249#3" /><trip id="200" type="default_017" depart="57719.99999999971" from="128361109#1" to="386687235" /><trip id="201" type="default_016" depart="57720.59999999971" from="315358244" to="-266565295#5" /><trip id="202" type="default_017" depart="57721.199999999706" from="124812856#0" to="-83304175#2" /><trip id="203" type="default_017" depart="57721.799999999705" from="266565295#5" to="-315358252#1" /><trip id="204" type="random_017" depart="57722.3999999997" from="128361102#0" to="201956820" /><trip id="205" type="default_016" depart="57722.9999999997" from="386687232#0" to="201238729#3" /><trip id="206" type="default_017" depart="57723.5999999997" from="386687232#0" to="-315358244" /><trip id="207" type="default_017" depart="57724.1999999997" from="-32978638#0" to="-24608846#0" /><trip id="208" type="default_017" depart="57724.7999999997" from="315358254#0" to="399835085#1" /><trip id="209" type="bus" depart="57725.399999999696" from="-25117417#1" to="32978638#0" /><trip id="210" type="default_016" depart="57725.999999999694" from="124812856#0" to="399835085#1" /><trip id="211" type="default_016" depart="57726.59999999969" from="-32978638#0" to="-315358244" /><trip id="212" type="default_016" depart="57727.19999999969" from="266565295#5" to="-315358244" /><trip id="213" type="default_017" depart="57727.79999999969" from="124812856#0" to="-315358244" /><trip id="214" type="default_017" depart="57728.39999999969" from="128361102#0" to="201956811#0" /><trip id="215" type="default_016" depart="57728.99999999969" from="128361102#0" to="201956811#0" /><trip id="216" type="default_017" depart="57729.599999999686" from="128361102#0" to="201956811#0" /><trip id="217" type="default_017" depart="57730.199999999684" from="315392062#0" to="386687235" /><trip id="218" type="default_017" depart="57730.79999999968" from="25190140#1" to="201956820" /><trip id="219" type="default_017" depart="57731.39999999968" from="124812856#0" to="306240162#0" /><trip id="220" type="default_017" depart="57731.99999999968" from="-201950247#0" to="386687235" /><trip id="221" type="default_016" depart="57732.59999999968" from="315358254#0" to="201201945#3" /><trip id="222" type="default_017" depart="57733.19999999968" from="24634411" to="306240162#0" /><trip id="223" type="default_017" depart="57733.799999999675" from="-306240162#1" to="272042145" /><trip id="224" type="default_016" depart="57734.399999999674" from="10425609#0" to="-128361102#1" /><trip id="225" type="default_017" depart="57734.99999999967" from="-306240162#1" to="386687235" /><trip id="226" type="default_017" depart="57735.59999999967" from="-306240162#1" to="386687235" /><trip id="227" type="default_016" depart="57736.19999999967" from="-447569998#1" to="-315358254#1" /><trip id="228" type="default_017" depart="57736.79999999967" from="386687232#0" to="-315358244" /><trip id="229" type="default_017" depart="57737.39999999967" from="-18809673#6" to="-266565295#5" /><trip id="230" type="default_017" depart="57737.999999999665" from="-306240162#1" to="201956820" /><trip id="231" type="default_017" depart="57738.599999999664" from="-18809673#6" to="201956820" /><trip id="232" type="default_016" depart="57739.19999999966" from="-18809673#6" to="-266565295#5" /><trip id="233" type="default_017" depart="57739.79999999966" from="-306240162#1" to="386687235" /><trip id="234" type="default_017" depart="57740.39999999966" from="128361109#1" to="272042145" /><trip id="235" type="default_016" depart="57740.99999999966" from="272042143" to="201238729#3" /><trip id="236" type="default_017" depart="57741.59999999966" from="24599188#0.94" to="-315358244" /><trip id="237" type="default_017" depart="57742.199999999655" from="272042143" to="-315358254#1" /><trip id="238" type="default_017" depart="57742.799999999654" from="128361109#1" to="399835085#1" /><trip id="239" type="default_016" depart="57743.39999999965" from="24599188#0.94" to="-315358254#1" /><trip id="240" type="default_016" depart="57743.99999999965" from="-18809673#6" to="-266565295#5" /><trip id="241" type="default_017" depart="57744.59999999965" from="315358244" to="32978638#0" /><trip id="242" type="default_016" depart="57745.19999999965" from="124812856#0" to="24634509#1" /><trip id="243" type="default_017" depart="57745.79999999965" from="272042143" to="399835085#1" /><trip id="244" type="default_017" depart="57746.399999999645" from="124812856#0" to="18809673#0" /><trip id="245" type="default_017" depart="57746.99999999964" from="-26677213#5" to="386687235" /><trip id="246" type="default_016" depart="57747.59999999964" from="-24634510#5" to="272042145" /><trip id="247" type="default_016" depart="57748.19999999964" from="315358244" to="201956820" /><trip id="248" type="default_016" depart="57748.79999999964" from="315358244" to="32978638#0" /><trip id="249" type="default_017" depart="57749.39999999964" from="399835085#1" to="-23525483#5" /><trip id="250" type="default_017" depart="57749.999999999636" from="-306240162#1" to="201956820" /><trip id="251" type="default_017" depart="57750.599999999635" from="128361109#1" to="386687235" /><trip id="252" type="random_017" depart="57751.19999999963" from="124812856#1" to="201956811#0" /><trip id="253" type="default_016" depart="57751.79999999963" from="272042143" to="306240162#0" /><trip id="254" type="default_016" depart="57752.39999999963" from="315358254#0" to="32978638#0" /><trip id="255" type="default_016" depart="57752.99999999963" from="386687232#0" to="201238729#3" /><trip id="256" type="default_017" depart="57753.59999999963" from="-32978638#0" to="201238729#3" /><trip id="257" type="default_017" depart="57754.199999999626" from="272042143" to="306240162#0" /><trip id="258" type="default_017" depart="57754.799999999625" from="272042143" to="201238729#3" /><trip id="259" type="default_016" depart="57755.39999999962" from="-32978638#0" to="-315358254#1" /><trip id="260" type="default_017" depart="57755.99999999962" from="128361109#1" to="-26677540#1" /><trip id="261" type="default_016" depart="57756.59999999962" from="124812856#0" to="-128361102#1" /><trip id="262" type="default_017" depart="57757.19999999962" from="128361102#0" to="201956820" /><trip id="263" type="default_017" depart="57757.79999999962" from="124812856#0" to="18809673#0" /><trip id="264" type="default_017" depart="57758.399999999616" from="-18809673#6" to="-266565295#5" /><trip id="265" type="random_017" depart="57758.999999999614" from="-160314346#0" to="201956820" /><trip id="266" type="default_017" depart="57759.59999999961" from="315358244" to="32978638#0" /><trip id="267" type="default_017" depart="57760.19999999961" from="128361102#0" to="201956820" /><trip id="268" type="default_017" depart="57760.79999999961" from="128361109#1" to="-315358254#1" /><trip id="269" type="default_017" depart="57761.39999999961" from="-53396619#4" to="-315358254#1" /><trip id="270" type="default_017" depart="57761.99999999961" from="-32978638#0" to="306240162#0" /><trip id="271" type="default_017" depart="57762.599999999606" from="201950247#8" to="-315358244" /><trip id="272" type="default_017" depart="57763.199999999604" from="-160314345#5" to="-128361102#1" /><trip id="273" type="default_016" depart="57763.7999999996" from="-447569998#1" to="-315358244" /><trip id="274" type="default_017" depart="57764.3999999996" from="-30482615#4" to="18809673#0" /><trip id="275" type="random_017" depart="57764.9999999996" from="272042143" to="201238729#3" /><trip id="276" type="default_017" depart="57765.5999999996" from="128361109#1" to="386687235" /><trip id="277" type="default_016" depart="57766.1999999996" from