<routes xmlns:xsi="http://www.w3.org/2001/XMLSchema-instance" xsi:noNamespaceSchemaLocation="http://sumo.dlr.de/xsd/routes_file.xsd">
	<vType id="bus" vClass="bus" color="green" />
	<vType id="default_017" vClass="passenger" color="red" />
    <vType id="random_017" vClass="passenger" color="blue" />
	<vType id="default_016" vClass="passenger" color="red" />
    <vType id="random_016" vClass="passenger" color="blue" />
	<vType id="default_015" vClass="passenger" color="red" />
    <vType id="random_015" vClass="passenger" color="blue" />
	<vType id="default_014" vClass="passenger" color="red" />
    <vType id="random_014" vClass="passenger" color="blue" />
	<vType id="default_013" vClass="passenger" color="red" />
    <vType id="random_013" vClass="passenger" color="blue" />
    <vType id="default_012" vClass="passenger" color="red" />
    <vType id="random_012" vClass="passenger" color="blue" />
	<vType id="default_011" vClass="passenger" color="red" />
    <vType id="random_011" vClass="passenger" color="blue" />
	<vType id="default_010" vClass="passenger" color="red" />
    <vType id="random_010" vClass="passenger" color="blue" />
	<vType id="default_009" vClass="passenger" color="red" />
    <vType id="random_009" vClass="passenger" color="blue" />
	<vType id="default_008" vClass="passenger" color="red" />
    <vType id="random_008" vClass="passenger" color="blue" />
	<vType id="default_007" vClass="passenger" color="red" />
    <vType id="random_007" vClass="passenger" color="blue" />
	<vType id="default_006" vClass="passenger" color="red" />
    <vType id="random_006" vClass="passenger" color="blue" />
	<vType id="default_005" vClass="passenger" color="red" />
    <vType id="random_005" vClass="passenger" color="blue" />
	<vType id="default_004" vClass="passenger" color="red" />
    <vType id="random_004" vClass="passenger" color="blue" />
	<vType id="default_003" vClass="passenger" color="red" />
    <vType id="random_003" vClass="passenger" color="blue" />
	<vType id="default_022" vClass="passenger" color="red" />
    <vType id="random_022" vClass="passenger" color="blue" />
	<vType id="default_021" vClass="passenger" color="red" />
    <vType id="random_021" vClass="passenger" color="blue" />
	<vType id="default_020" vClass="passenger" color="red" />
    <vType id="random_020" vClass="passenger" color="blue" />
	<vType id="default_019" vClass="passenger" color="red" />
    <vType id="random_019" vClass="passenger" color="blue" />
	<vType id="default_018" vClass="passenger" color="red" />
    <vType id="random_018" vClass="passenger" color="blue" />
	<vType id="default_002" vClass="passenger" color="red" />
    <vType id="random_002" vClass="passenger" color="blue" />
	<vType id="default_001" vClass="passenger" color="red" />
    <vType id="random_001" vClass="passenger" color="blue" />
<trip id="0" type="default_017" depart="57600" from="653473569#5" to="201956820" /><trip id="1" type="default_017" depart="57600.72" from="10425609#0" to="-653473569#5" /><trip id="2" type="default_016" depart="57601.44" from="10425609#0" to="-653473569#5" /><trip id="3" type="default_017" depart="57602.16" from="315358253#1" to="32978638#0" /><trip id="4" type="default_017" depart="57602.880000000005" from="124812856#0" to="202070434#2" /><trip id="5" type="default_016" depart="57603.600000000006" from="10425609#0" to="-653473569#5" /><trip id="6" type="default_016" depart="57604.32000000001" from="124812856#0" to="202070434#2" /><trip id="7" type="default_017" depart="57605.04000000001" from="124812856#0" to="202070434#2" /><trip id="8" type="random_017" depart="57605.76000000001" from="-24693977#1" to="201956810" /><trip id="9" type="default_017" depart="57606.48000000001" from="653473569#5" to="-315358253#1" /><trip id="10" type="default_017" depart="57607.20000000001" from="-32978638#0" to="-315358253#1" /><trip id="11" type="default_016" depart="57607.92000000001" from="25145012#7" to="201956820" /><trip id="12" type="bus" depart="57608.640000000014" from="25145012#7" to="201956811#0" /><trip id="13" type="default_016" depart="57609.360000000015" from="124812856#0" to="-653473569#5" /><trip id="14" type="default_017" depart="57610.080000000016" from="124812856#0" to="-653473569#5" /><trip id="15" type="default_016" depart="57610.80000000002" from="27920078#0" to="201956820" /><trip id="16" type="default_017" depart="57611.52000000002" from="124812856#0" to="202070434#2" /><trip id="17" type="default_017" depart="57612.24000000002" from="-22716549#6" to="201956811#0" /><trip id="18" type="default_017" depart="57612.96000000002" from="653473569#5" to="-83304175#2" /><trip id="19" type="default_017" depart="57613.68000000002" from="124812856#0" to="-653473569#5" /><trip id="20" type="default_017" depart="57614.40000000002" from="315358253#1" to="32978638#0" /><trip id="21" type="default_017" depart="57615.120000000024" from="-32978638#0" to="-315358253#1" /><trip id="22" type="random_016" depart="57615.840000000026" from="653473569#5" to="201956820" /><trip id="23" type="default_017" depart="57616.56000000003" from="315358253#1" to="-266565295#5" /><trip id="24" type="random_017" depart="57617.28000000003" from="315358253#1" to="32978638#0" /><trip id="25" type="default_016" depart="57618.00000000003" from="10425609#0" to="-653473569#5" /><trip id="26" type="default_017" depart="57618.72000000003" from="653473569#5" to="-266565295#5" /><trip id="27" type="default_016" depart="57619.44000000003" from="315358253#1" to="-266565295#5" /><trip id="28" type="default_017" depart="57620.16000000003" from="124812856#0" to="-315358253#1" /><trip id="29" type="default_017" depart="57620.880000000034" from="653473569#5" to="201956811#0" /><trip id="30" type="default_017" depart="57621.600000000035" from="653473569#5" to="-83304175#2" /><trip id="31" type="default_016" depart="57622.320000000036" from="25145012#7" to="201956811#0" /><trip id="32" type="default_016" depart="57623.04000000004" from="-24693977#1" to="-266565295#5" /><trip id="33" type="default_016" depart="57623.76000000004" from="653473569#5" to="201956811#0" /><trip id="34" type="default_016" depart="57624.48000000004" from="-32978638#0" to="-315358253#1" /><trip id="35" type="default_016" depart="57625.20000000004" from="124812856#0" to="-653473569#5" /><trip id="36" type="random_016" depart="57625.92000000004" from="-201089423#1" to="32978638#0" /><trip id="37" type="default_016" depart="57626.64000000004" from="653473569#5" to="-83304175#2" /><trip id="38" type="default_016" depart="57627.360000000044" from="124812856#0" to="24693977#1" /><trip id="39" type="default_017" depart="57628.080000000045" from="27920078#0" to="201956820" /><trip id="40" type="default_016" depart="57628.80000000005" from="27920078#0" to="-83304175#2" /><trip id="41" type="default_016" depart="57629.52000000005" from="124812856#0" to="-653473569#5" /><trip id="42" type="default_017" depart="57630.24000000005" from="315358253#1" to="32978638#0" /><trip id="43" type="default_017" depart="57630.96000000005" from="124812856#0" to="202070434#2" /><trip id="44" type="random_016" depart="57631.68000000005" from="10425609#0" to="-653473569#5" /><trip id="45" type="default_016" depart="57632.40000000005" from="266565295#5" to="-315358253#1" /><trip id="46" type="default_017" depart="57633.12000000005" from="27920078#0" to="201956820" /><trip id="47" type="default_016" depart="57633.840000000055" from="25145012#7" to="201956820" /><trip id="48" type="default_016" depart="57634.560000000056" from="124812856#0" to="-653473569#5" /><trip id="49" type="random_016" depart="57635.28000000006" from="315358253#1" to="-653473569#5" /><trip id="50" type="default_017" depart="57636.00000000006" from="-32978638#0" to="-315358253#1" /><trip id="51" type="default_016" depart="57636.72000000006" from="10425609#0" to="-653473569#5" /><trip id="52" type="default_017" depart="57637.44000000006" from="266565295#5" to="202070434#2" /><trip id="53" type="default_017" depart="57638.16000000006" from="124812856#0" to="-653473569#5" /><trip id="54" type="default_017" depart="57638.88000000006" from="-32978638#0" to="-315358253#1" /><trip id="55" type="default_016" depart="57639.600000000064" from="-32978638#0" to="24693977#1" /><trip id="56" type="default_016" depart="57640.320000000065" from="27920078#0" to="201956820" /><trip id="57" type="default_017" depart="57641.040000000066" from="124812856#0" to="-653473569#5" /><trip id="58" type="default_017" depart="57641.76000000007" from="315358253#1" to="-266565295#5" /><trip id="59" type="default_016" depart="57642.48000000007" from="25145012#7" to="201956811#0" /><trip id="60" type="default_017" depart="57643.20000000007" from="-24693977#1" to="32978638#0" /><trip id="61" type="default_016" depart="57643.92000000007" from="-32978638#0" to="202070434#2" /><trip id="62" type="random_017" depart="57644.64000000007" from="27920078#0" to="201956810" /><trip id="63" type="default_017" depart="57645.36000000007" from="25145012#7" to="201956811#0" /><trip id="64" type="default_017" depart="57646.080000000075" from="10425609#0" to="201956810" /><trip id="65" type="default_016" depart="57646.800000000076" from="124812856#0" to="-315358253#1" /><trip id="66" type="default_016" depart="57647.52000000008" from="315358253#1" to="-653473569#5" /><trip id="67" type="default_017" depart="57648.24000000008" from="124812856#0" to="-653473569#5" /><trip id="68" type="bus" depart="57648.96000000008" from="315358253#1" to="32978638#0" /><trip id="69" type="default_017" depart="57649.68000000008" from="124812856#0" to="-315358253#1" /><trip id="70" type="default_016" depart="57650.40000000008" from="25145012#7" to="201956811#0" /><trip id="71" type="bus" depart="57651.12000000008" from="27920078#0" to="201956811#0" /><trip id="72" type="default_017" depart="57651.840000000084" from="266565295#5" to="24693977#1" /><trip id="73" type="default_016" depart="57652.560000000085" from="653473569#5" to="201956811#0" /><trip id="74" type="default_016" depart="57653.280000000086" from="-173169611#0" to="201956820" /><trip id="75" type="default_017" depart="57654.00000000009" from="25145012#7" to="201956811#0" /><trip id="76" type="default_017" depart="57654.72000000009" from="266565295#5" to="24693977#1" /><trip id="77" type="default_016" depart="57655.44000000009" from="266565295#5" to="-653473569#5" /><trip id="78" type="default_017" depart="57656.16000000009" from="653473569#5" to="201956820" /><trip id="79" type="default_017" depart="57656.88000000009" from="124812856#0" to="-315358253#1" /><trip id="80" type="default_017" depart="57657.60000000009" from="124812856#0" to="-653473569#5" /><trip id="81" type="default_017" depart="57658.320000000094" from="24599188#0.94" to="24693977#1" /><trip id="82" type="default_017" depart="57659.040000000095" from="653473569#5" to="201956811#0" /><trip id="83" type="default_017" depart="57659.7600000001" from="315358253#1" to="-266565295#5" /><trip id="84" type="default_017" depart="57660.4800000001" from="27920078#0" to="-83304175#2" /><trip id="85" type="default_016" depart="57661.2000000001" from="-32978638#0" to="-315358253#1" /><trip id="86" type="default_016" depart="57661.9200000001" from="653473569#5" to="201956811#0" /><trip id="87" type="default_017" depart="57662.6400000001" from="-24693977#1" to="-266565295#5" /><trip id="88" type="default_017" depart="57663.3600000001" from="124812856#0" to="202070434#2" /><trip id="89" type="default_016" depart="57664.0800000001" from="124812856#0" to="202070434#2" /><trip id="90" type="random_016" depart="57664.800000000105" from="124812856#0" to="-653473569#5" /><trip id="91" type="random_017" depart="57665.520000000106" from="-173169611#0" to="201956820" /><trip id="92" type="random_016" depart="57666.24000000011" from="27920078#0" to="201956820" /><trip id="93" type="default_017" depart="57666.96000000011" from="27920078#0" to="201956820" /><trip id="94" type="default_017" depart="57667.68000000011" from="10425609#0" to="-653473569#5" /><trip id="95" type="default_017" depart="57668.40000000011" from="27920078#0" to="-315358253#1" /><trip id="96" type="default_016" depart="57669.12000000011" from="-32978638#0" to="-315358253#1" /><trip id="97" type="default_016" depart="57669.84000000011" from="-32978638#0" to="202070434#2" /><trip id="98" type="default_017" depart="57670.560000000114" from="653473569#5" to="201956820" /><trip id="99" type="default_017" depart="57671.280000000115" from="27920078#0" to="201956820" /><trip id="100" type="default_016" depart="57672.00000000012" from="-32978638#0" to="-315358253#1" /><trip id="101" type="default_016" depart="57672.72000000012" from="124812856#0" to="201956810" /><trip id="102" type="default_016" depart="57673.44000000012" from="10425609#0" to="201956810" /><trip id="103" type="default_016" depart="57674.16000000012" from="266565295#5" to="-315358253#1" /><trip id="104" type="default_017" depart="57674.88000000012" from="315358253#1" to="32978638#0" /><trip id="105" type="default_016" depart="57675.60000000012" from="315358253#1" to="32978638#0" /><trip id="106" type="default_017" depart="57676.32000000012" from="-32978638#0" to="-315358253#1" /><trip id="107" type="default_016" depart="57677.040000000125" from="315358253#1" to="201956820" /><trip id="108" type="default_017" depart="57677.760000000126" from="124812856#0" to="201956810" /><trip id="109" type="default_017" depart="57678.48000000013" from="315358253#1" to="201956820" /><trip id="110" type="default_016" depart="57679.20000000013" from="10425609#0" to="-653473569#5" /><trip id="111" type="default_017" depart="57679.92000000013" from="27920078#0" to="-266565295#5" /><trip id="112" type="default_016" depart="57680.64000000013" from="-173169611#0" to="201956820" /><trip id="113" type="default_016" depart="57681.36000000013" from="10425609#0" to="-653473569#5" /><trip id="114" type="default_018" depart="57682.08000000013" from="-32999434#1" to="-266565295#5" /><trip id="115" type="default_016" depart="57682.800000000134" from="10425609#0" to="-653473569#5" /><trip id="116" type="default_016" depart="57683.520000000135" from="-32978638#0" to="-315358253#1" /><trip id="117" type="default_016" depart="57684.240000000136" from="27920078#0" to="-83304175#2" /><trip id="118" type="default_017" depart="57684.96000000014" from="27920078#0" to="201956820" /><trip id="119" type="default_016" depart="57685.68000000014" from="-32978638#0" to="-315358253#1" /><trip id="120" type="default_016" depart="57686.40000000014" from="27920078#0" to="201956820" /><trip id="121" type="default_017" depart="57687.12000000014" from="27920078#0" to="201956820" /><trip id="122" type="default_017" depart="57687.84000000014" from="124812856#0" to="202070434#2" /><trip id="123" type="default_017" depart="57688.56000000014" from="315358253#1" to="32978638#0" /><trip id="124" type="default_017" depart="57689.280000000144" from="124812856#0" to="202070434#2" /><trip id="125" type="default_016" depart="57690.000000000146" from="315358253#1" to="-266565295#5" /><trip id="126" type="default_016" depart="57690.72000000015" from="124812856#0" to="-315358253#1" /><trip id="127" type="default_017" depart="57691.44000000015" from="315358253#1" to="51857516#1" /><trip id="128" type="default_017" depart="57692.16000000015" from="10425609#0" to="201956810" /><trip id="129" type="default_017" depart="57692.88000000015" from="-32124743" to="-266565295#5" /><trip id="130" type="default_017" depart="57693.60000000015" from="315358253#1" to="32978638#0" /><trip id="131" type="random_017" depart="57694.32000000015" from="-173169611#0" to="-315358253#1" /><trip id="132" type="default_017" depart="57695.040000000154" from="10425609#0" to="-653473569#5" /><trip id="133" type="bus" depart="57695.760000000155" from="-32978638#0" to="202070434#2" /><trip id="134" type="default_017" depart="57696.480000000156" from="653473569#5" to="201956820" /><trip id="135" type="default_016" depart="57697.20000000016" from="124812856#0" to="202070434#2" /><trip id="136" type="default_017" depart="57697.92000000016" from="315358253#1" to="32978638#0" /><trip id="137" type="default_017" depart="57698.64000000016" from="653473569#5" to="201956811#0" /><trip id="138" type="default_016" depart="57699.36000000016" from="124812856#0" to="-653473569#5" /><trip id="139" type="default_017" depart="57700.08000000016" from="653473569#5" to="-266565295#5" /><trip id="140" type="default_017" depart="57700.80000000016" from="27920078#0" to="-83304175#2" /><trip id="141" type="default_017" depart="57701.520000000164" from="27920078#0" to="201956811#0" /><trip id="142" type="default_017" depart="57702.240000000165" from="10425609#0" to="202070434#2" /><trip id="143" type="default_017" depart="57702.96000000017" from="27920078#0" to="201956820" /><trip id="144" type="default_017" depart="57703.68000000017" from="-32978638#0" to="-315358253#1" /><trip id="145" type="default_016" depart="57704.40000000017" from="25145012#7" to="201956811#0" /><trip id="146" type="default_017" depart="57705.12000000017" from="10425609#0" to="-653473569#5" /><trip id="147" type="random_016" depart="57705.84000000017" from="27920078#0" to="201956820" /><trip id="148" type="default_017" depart="57706.56000000017" from="315358253#1" to="32978638#0" /><trip id="149" type="default_017" depart="57707.28000000017" from="315358253#1" to="201956811#0" /><trip id="150" type="default_017" depart="57708.000000000175" from="124812856#0" to="202070434#2" /><trip id="151" type="default_016" depart="57708.720000000176" from="10425609#0" to="202070434#2" /><trip id="152" type="default_016" depart="57709.44000000018" from="266565295#5" to="-315358253#1" /><trip id="153" type="random_017" depart="57710.16000000018" from="124812856#0" to="202070434#2" /><trip id="154" type="default_017" depart="57710.88000000018" from="315358253#1" to="-266565295#5" /><trip id="155" type="default_017" depart="57711.60000000018" from="315358253#1" to="-653473569#5" /><trip id="156" type="default_016" depart="57712.32000000018" from="653473569#5" to="201956820" /><trip id="157" type="bus" depart="57713.04000000018" from="-32978638#0" to="24693977#1" /><trip id="158" type="default_017" depart="57713.760000000184" from="27920078#0" to="201956820" /><trip id="159" type="default_016" depart="57714.480000000185" from="-173169611#0" to="-83304175#2" /><trip id="160" type="default_017" depart="57715.200000000186" from="27920078#0" to="201956820" /><trip id="161" type="default_017" depart="57715.92000000019" from="124812856#0" to="201956810" /><trip id="162" type="default_016" depart="57716.64000000019" from="653473569#5" to="201956820" /><trip id="163" type="default_017" depart="57717.36000000019" from="24599188#0.94" to="24693977#1" /><trip id="164" type="default_017" depart="57718.08000000019" from="315358253#1" to="32978638#0" /><trip id="165" type="default_017" depart="57718.80000000019" from="10425609#0" to="-653473569#5" /><trip id="166" type="default_017" depart="57719.52000000019" from="124812856#0" to="201956810" /><trip id="167" type="default_017" depart="57720.240000000194" from="-32978638#0" to="-315358253#1" /><trip id="168" type="default_017" depart="57720.960000000196" from="124812856#0" to="-83304175#2" /><trip id="169" type="default_017" depart="57721.6800000002" from="-32978638#0" to="-315358253#1" /><trip id="170" type="default_018" depart="57722.4000000002" from="-32999434#1" to="-266565295#5" /><trip id="171" type="default_017" depart="57723.1200000002" from="25145012#7" to="201956820" /><trip id="172" type="default_016" depart="57723.8400000002" from="25145012#7" to="201956811#0" /><trip id="173" type="default_017" depart="57724.5600000002" from="10425609#0" to="-653473569#5" /><trip id="174" type="default_017" depart="57725.2800000002" from="-24693977#1" to="-266565295#5" /><trip id="175" type="default_016" depart="57726.000000000204" from="315358253#1" to="-266565295#5" /><trip id="176" type="default_016" depart="57726.720000000205" from="124812856#0" to="202070434#2" /><trip id="177" type="default_017" depart="57727.440000000206" from="124812856#0" to="-315358253#1" /><trip id="178" type="default_016" depart="57728.16000000021" from="25145012#7" to="201956820" /><trip id="179" type="default_017" depart="57728.88000000021" from="124812856#0" to="-653473569#5" /><trip id="180" type="default_017" depart="57729.60000000021" from="124812856#0" to="-653473569#5" /><trip id="181" type="default_016" depart="57730.32000000021" from="27920078#0" to="-83304175#2" /><trip id="182" type="default_017" depart="57731.04000000021" from="10425609#0" to="201956810" /><trip id="183" type="default_017" depart="57731.76000000021" from="124812856#0" to="202070434#2" /><trip id="184" type="default_016" depart="57732.480000000214" from="124812856#0" to="-83304175#2" /><trip id="185" type="default_017" depart="57733.200000000215" from="27920078#0" to="201956820" /><trip id="186" type="default_017" depart="57733.92000000022" from="10425609#0" to="201956810" /><trip id="187" type="default_017" depart="57734.64000000022" from="27920078#0" to="201956820" /><trip id="188" type="default_017" depart="57735.36000000022" from="653473569#5" to="-266565295#5" /><trip id="189" type="default_016" depart="57736.08000000022" from="124812856#0" to="-653473569#5" /><trip id="190" type="default_016" depart="57736.80000000022" from="653473569#5" to="201956820" /><trip id="191" type="default_017" depart="57737.52000000022" from="124812856#0" to="201956810" /><trip id="192" type="default_016" depart="57738.24000000022" from="24599188#0.94" to="24693977#1" /><trip id="193" type="default_017" depart="57738.960000000225" from="27920078#0" to="201956820" /><trip id="194" type="default_017" depart="57739.680000000226" from="315358253#1" to="-266565295#5" /><trip id="195" type="default_016" depart="57740.40000000023" from="266565295#5" to="24693977#1" /><trip id="196" type="default_017" depart="57741.12000000023" from="266565295#5" to="24693977#1" /><trip id="197" type="default_017" depart="57741.84000000023" from="315358253#1" to="32978638#0" /><trip id="198" type="default_017" depart="57742.56000000023" from="27920078#0" to="201956820" /><trip id="199" type="default_017" depart="57743.28000000023" from="315358253#1" to="32978638#0" /><trip id="200" type="default_017" depart="57744.00000000023" from="124812856#0" to="202070434#2" /><trip id="201" type="default_017" depart="57744.720000000234" from="27920078#0" to="-266565295#5" /><trip id="202" type="default_016" depart="57745.440000000235" from="315358253#1" to="32978638#0" /><trip id="203" type="default_017" depart="57746.160000000236" from="27920078#0" to="-266565295#5" /><trip id="204" type="default_016" depart="57746.88000000024" from="-24693977#1" to="-266565295#5" /><trip id="205" type="default_017" depart="57747.60000000024" from="653473569#5" to="-266565295#5" /><trip id="206" type="default_016" depart="57748.32000000024" from="124812856#0" to="-653473569#5" /><trip id="207" type="random_017" depart="57749.04000000024" from="-32978638#0" to="24693977#1" /><trip id="208" type="default_017" depart="57749.76000000024" from="124812856#0" to="202070434#2" /><trip id="209" type="default_016" depart="57750.48000000024" from="-32978638#0" to="-315358253#1" /><trip id="210" type="default_016" depart="57751.200000000244" from="24599188#0.94" to="24693977#1" /><trip id="211" type="default_017" depart="57751.920000000246" from="315358253#1" to="-266565295#5" /><trip id="212" type="default_017" depart="57752.64000000025" from="-32978638#0" to="202070434#2" /><trip id="213" type="default_017" depart="57753.36000000025" from="315358253#1" to="32978638#0" /><trip id="214" type="default_017" depart="57754.08000000025" from="653473569#5" to="201956811#0" /><trip id="215" type="default_016" depart="57754.80000000025" from="10425609#0" to="202070434#2" /><trip id="216" type="default_016" depart="57755.52000000025" from="-32978638#0" to="202070434#2" /><trip id="217" type="default_016" depart="57756.24000000025" from="27920078#0" to="201956820" /><trip id="218" type="random_016" depart="57756.960000000254" from="653473569#5" to="201956811#0" /><trip id="219" type="default_017" depart="57757.680000000255" from="653473569#5" to="-315358253#1" /><trip id="220" type="default_017" depart="57758.400000000256" from="315358253#1" to="32978638#0" /><trip id="221" type="default_016" depart="57759.12000000026" from="124812856#0" to="201956810" /><trip id="222" type="default_017" depart="57759.84000000026" from="653473569#5" to="201956811#0" /><trip id="223" type="default_017" depart="57760.56000000026" from="25145012#7" to="201956820" /><trip id="224" type="default_017" depart="57761.28000000026" from="266565295#5" to="24693977#1" /><trip id="225" type="default_017" depart="57762.00000000026" from="-32978638#0" to="-315358253#1" /><trip id="226" type="default_016" depart="57762.72000000026" from="-32978638#0" to="202070434#2" /><trip id="227" type="default_016" depart="57763.440000000264" from="-32978638#0" to="-37386279" /><trip id="228" type="default_016" depart="57764.160000000265" from="-22716549#6" to="202070434#2" /><trip id="229" type="default_016" depart="57764.88000000027" from="-32978638#0" to="-266565295#5" /><trip id="230" type="random_017" depart="57765.60000000027" from="27920078#0" to="-266565295#5" /><trip id="231" type="default_016" depart="57766.32000000027" from="27920078#0" to="-83304175#2" /><trip id="232" type="default_016" depart="57767.04000000027" from="10425609#0" to="-653473569#5" /><trip id="233" type="default_017" depart="57767.76000000027" from="27920078#0" to="-83304175#2" /><trip id="234" type="default_017" depart="57768.48000000027" from="-32978638#0" to="24693977#1" /><trip id="235" type="default_017" depart="57769.20000000027" from="653473569#5" to="201956820" /><trip id="236" type="default_017" depart="57769.920000000275" from="-24693977#1" to="201956820" /><trip id="237" type="default_016" depart="57770.640000000276" from="25145012#7" to="201956820" /><trip id="238" type="default_017" depart="57771.36000000028" from="27920078#0" to="-83304175#2" /><trip id="239" type="default_017" depart="57772.08000000028" from="10425609#0" to="-653473569#5" /><trip id="240" type="default_017" depart="57772.80000000028" from="27920078#0" to="201956820" /><trip id="241" type="default_017" depart="57773.52000000028" from="266565295#5" to="24693977#1" /><trip id="242" type="random_017" depart="57774.24000000028" from="124812856#0" to="24693977#1" /><trip id="243" type="default_016" depart="57774.96000000028" from="24599188#0.94" to="24693977#1" /><trip id="244" type="default_017" depart="57775.680000000284" from="315358253#1" to="201956820" /><trip id="245" type="default_017" depart="57776.400000000285" from="653473569#5" to="201956820" /><trip id="246" type="default_016" depart="57777.12000000029" from="24599188#0.94" to="24693977#1" /><trip id="247" type="default_017" depart="57777.84000000029" from="653473569#5" to="201956811#0" /><trip id="248" type="default_017" depart="57778.56000000029" from="266565295#5" to="202070434#2" /><trip id="249" type="default_016" depart="57779.28000000029" from="10425609#0" to="-653473569#5" /><trip id="250" type="default_017" depart="57780.00000000029" from="10425609#0" to="-653473569#5" /><trip id="251" type="default_017" depart="57780.72000000029" from="124812856#0" to="201956810" /><trip id="252" type="default_016" depart="57781.44000000029" from="-24693977#1" to="-266565295#5" /><trip id="253" type="default_016" depart="57782.160000000295" from="653473569#5" to="201956811#0" /><trip id="254" type="default_016" depart="57782.880000000296" from="124812856#0" to="202070434#2" /><trip id="255" type="random_017" depart="57783.6000000003" from="-173169611#0" to="201956820" /><trip id="256" type="default_016" depart="57784.3200000003" from="-32978638#0" to="-315358253#1" /><trip id="257" type="default_016" depart="57785.0400000003" from="10425609#0" to="-653473569#5" /><trip id="258" type="default_017" depart="57785.7600000003" from="653473569#5" to="201956820" /><trip id="259" type="default_017" depart="57786.4800000003" from="27920078#0" to="-83304175#2" /><trip id="260" type="default_017" depart="57787.2000000003" from="124812856#0" to="202070434#2" /><trip id="261" type="random_017" depart="57787.920000000304" from="266565295#5" to="-104010328" /><trip id="262" type="default_016" depart="57788.640000000305" from="653473569#5" to="201956820" /><trip id="263" type="default_017" depart="57789.360000000306" from="-24693977#1" to="202070434#2" /><trip id="264" type="default_016" depart="57790.08000000031" from="-22716549#6" to="201956811#0" /><trip id="265" type="default_017" depart="57790.80000000031" from="653473569#5" to="201956811#0" /><trip id="266" type="default_016" depart="57791.52000000031" from="10425609#0" to="201956810" /><trip id="267" type="default_017" depart="57792.24000000031" from="266565295#5" to="-24608844" /><trip id="268" type="default_016" depart="57792.96000000031" from="315358253#1" to="-266565295#5" /><trip id="269" type="default_017" depart="57793.68000000031" from="24599188#0.94" to="22716549#0" /><trip id="270" type="default_016" depart="57794.400000000314" from="124812856#0" to="201956810" /><trip id="271" type="default_016" depart="57795.120000000315" from="10425609#0" to="-653473569#5" /><trip id="272" type="default_017" depart="57795.84000000032" from="653473569#5" to="201956811#0" /><trip id="273" type="default_016" depart="57796.56000000032" from="124812856#0" to="24693977#1" /><trip id="274" type="default_016" depart="57797.28000000032" from="124812856#0" to="202070434#2" /><trip id="275" type="default_016" depart="57798.00000000032" from="27920078#0" to="-315358253#1" /><trip id="276" type="default_017" depart="57798.72000000032" from="653473569#5" to="-315358253#1" /><trip id="277" 