<routes xmlns:xsi="http://www.w3.org/2001/XMLSchema-instance" xsi:noNamespaceSchemaLocation="http://sumo.dlr.de/xsd/routes_file.xsd">
	<vType id="bus" vClass="bus" color="green" />
	<vType id="default_017" vClass="passenger" color="red" />
    <vType id="random_017" vClass="passenger" color="blue" />
	<vType id="default_016" vClass="passenger" color="red" />
    <vType id="random_016" vClass="passenger" color="blue" />
	<vType id="default_015" vClass="passenger" color="red" />
    <vType id="random_015" vClass="passenger" color="blue" />
	<vType id="default_014" vClass="passenger" color="red" />
    <vType id="random_014" vClass="passenger" color="blue" />
	<vType id="default_013" vClass="passenger" color="red" />
    <vType id="random_013" vClass="passenger" color="blue" />
    <vType id="default_012" vClass="passenger" color="red" />
    <vType id="random_012" vClass="passenger" color="blue" />
	<vType id="default_011" vClass="passenger" color="red" />
    <vType id="random_011" vClass="passenger" color="blue" />
	<vType id="default_010" vClass="passenger" color="red" />
    <vType id="random_010" vClass="passenger" color="blue" />
	<vType id="default_009" vClass="passenger" color="red" />
    <vType id="random_009" vClass="passenger" color="blue" />
	<vType id="default_008" vClass="passenger" color="red" />
    <vType id="random_008" vClass="passenger" color="blue" />
	<vType id="default_007" vClass="passenger" color="red" />
    <vType id="random_007" vClass="passenger" color="blue" />
	<vType id="default_006" vClass="passenger" color="red" />
    <vType id="random_006" vClass="passenger" color="blue" />
	<vType id="default_005" vClass="passenger" color="red" />
    <vType id="random_005" vClass="passenger" color="blue" />
	<vType id="default_004" vClass="passenger" color="red" />
    <vType id="random_004" vClass="passenger" color="blue" />
	<vType id="default_003" vClass="passenger" color="red" />
    <vType id="random_003" vClass="passenger" color="blue" />
	<vType id="default_022" vClass="passenger" color="red" />
    <vType id="random_022" vClass="passenger" color="blue" />
	<vType id="default_021" vClass="passenger" color="red" />
    <vType id="random_021" vClass="passenger" color="blue" />
	<vType id="default_020" vClass="passenger" color="red" />
    <vType id="random_020" vClass="passenger" color="blue" />
	<vType id="default_019" vClass="passenger" color="red" />
    <vType id="random_019" vClass="passenger" color="blue" />
	<vType id="default_018" vClass="passenger" color="red" />
    <vType id="random_018" vClass="passenger" color="blue" />
	<vType id="default_002" vClass="passenger" color="red" />
    <vType id="random_002" vClass="passenger" color="blue" />
	<vType id="default_001" vClass="passenger" color="red" />
    <vType id="random_001" vClass="passenger" color="blue" />
<trip id="0" type="random_016" depart="57600" from="201963537#1" to="104010475#0" /><trip id="1" type="default_017" depart="57601.8" from="104010354" to="124812857#0" /><trip id="2" type="default_016" depart="57603.600000000006" from="104010354" to="124812857#0" /><trip id="3" type="default_017" depart="57605.40000000001" from="104010354" to="124812857#0" /><trip id="4" type="default_017" depart="57607.20000000001" from="201963537#1" to="-653473569#5" /><trip id="5" type="default_017" depart="57609.000000000015" from="25149219#1" to="-653473569#5" /><trip id="6" type="default_016" depart="57610.80000000002" from="201963537#1" to="104012170" /><trip id="7" type="default_017" depart="57612.60000000002" from="104010354" to="124812857#0" /><trip id="8" type="default_017" depart="57614.40000000002" from="653473569#5" to="124812857#0" /><trip id="9" type="default_016" depart="57616.200000000026" from="201963537#1" to="104012170" /><trip id="10" type="default_017" depart="57618.00000000003" from="201963537#1" to="-653473569#5" /><trip id="11" type="default_017" depart="57619.80000000003" from="201963537#1" to="104012170" /><trip id="12" type="default_017" depart="57621.600000000035" from="653473569#5" to="124812857#0" /><trip id="13" type="default_016" depart="57623.40000000004" from="104010354" to="124812857#0" /><trip id="14" type="default_017" depart="57625.20000000004" from="201963537#1" to="-653473569#5" /><trip id="15" type="default_017" depart="57627.000000000044" from="653473569#5" to="104012170" /><trip id="16" type="default_016" depart="57628.80000000005" from="25149219#1" to="-653473569#5" /><trip id="17" type="default_016" depart="57630.60000000005" from="653473569#5" to="104012170" /><trip id="18" type="default_017" depart="57632.40000000005" from="104010354" to="124812857#0" /><trip id="19" type="default_017" depart="57634.200000000055" from="201963537#1" to="104012170" /><trip id="20" type="default_017" depart="57636.00000000006" from="201963537#1" to="-653473569#5" /><trip id="21" type="default_017" depart="57637.80000000006" from="201963537#1" to="-653473569#5" /><trip id="22" type="default_016" depart="57639.600000000064" from="201963537#1" to="104012170" /><trip id="23" type="default_017" depart="57641.40000000007" from="201963537#1" to="104012170" /><trip id="24" type="default_017" depart="57643.20000000007" from="201963537#1" to="104012170" /><trip id="25" type="default_016" depart="57645.00000000007" from="653473569#5" to="104012170" /><trip id="26" type="default_017" depart="57646.800000000076" from="201963537#1" to="104012170" /><trip id="27" type="default_016" depart="57648.60000000008" from="104010354" to="124812857#0" /><trip id="28" type="default_017" depart="57650.40000000008" from="104010354" to="124812857#0" /><trip id="29" type="default_016" depart="57652.200000000084" from="653473569#5" to="124812857#0" /><trip id="30" type="default_016" depart="57654.00000000009" from="25149219#1" to="-653473569#5" /><trip id="31" type="default_016" depart="57655.80000000009" from="653473569#5" to="104012170" /><trip id="32" type="default_017" depart="57657.60000000009" from="653473569#5" to="104012170" /><trip id="33" type="default_017" depart="57659.400000000096" from="104010354" to="124812857#0" /><trip id="34" type="default_017" depart="57661.2000000001" from="104010354" to="124812857#0" /><trip id="35" type="default_017" depart="57663.0000000001" from="201963537#1" to="-653473569#5" /><trip id="36" type="default_017" depart="57664.800000000105" from="201963537#1" to="-653473569#5" /><trip id="37" type="default_016" depart="57666.60000000011" from="201963537#1" to="-653473569#5" /><trip id="38" type="default_017" depart="57668.40000000011" from="653473569#5" to="124812857#0" /><trip id="39" type="default_017" depart="57670.20000000011" from="104010354" to="124812857#0" /><trip id="40" type="default_017" depart="57672.00000000012" from="25149219#1" to="-653473569#5" /><trip id="41" type="default_017" depart="57673.80000000012" from="653473569#5" to="124812857#0" /><trip id="42" type="random_017" depart="57675.60000000012" from="104010354" to="124812857#0" /><trip id="43" type="default_016" depart="57677.400000000125" from="104010354" to="124812857#0" /><trip id="44" type="default_016" depart="57679.20000000013" from="201963537#1" to="104012170" /><trip id="45" type="random_018" depart="57681.00000000013" from="104010354" to="124812857#0" /><trip id="46" type="default_016" depart="57682.800000000134" from="25149219#1" to="-653473569#5" /><trip id="47" type="default_016" depart="57684.60000000014" from="653473569#5" to="124812857#0" /><trip id="48" type="default_017" depart="57686.40000000014" from="201963537#1" to="104012170" /><trip id="49" type="random_016" depart="57688.20000000014" from="25149219#1" to="-653473569#5" /><trip id="50" type="random_017" depart="57690.000000000146" from="201963537#1" to="104012170" /><trip id="51" type="default_016" depart="57691.80000000015" from="201963537#1" to="-653473569#5" /><trip id="52" type="default_017" depart="57693.60000000015" from="201963537#1" to="104012170" /><trip id="53" type="default_017" depart="57695.400000000154" from="653473569#5" to="124812857#0" /><trip id="54" type="default_016" depart="57697.20000000016" from="201963537#1" to="-653473569#5" /><trip id="55" type="default_017" depart="57699.00000000016" from="25149219#1" to="104012170" /><trip id="56" type="default_016" depart="57700.80000000016" from="25149219#1" to="-653473569#5" /><trip id="57" type="default_016" depart="57702.600000000166" from="653473569#5" to="124812857#0" /><trip id="58" type="default_016" depart="57704.40000000017" from="201963537#1" to="104012170" /><trip id="59" type="default_016" depart="57706.20000000017" from="201963537#1" to="104012170" /><trip id="60" type="default_017" depart="57708.000000000175" from="653473569#5" to="104012170" /><trip id="61" type="default_017" depart="57709.80000000018" from="25149219#1" to="-653473569#5" /><trip id="62" type="default_017" depart="57711.60000000018" from="201963537#1" to="-653473569#5" /><trip id="63" type="default_017" depart="57713.40000000018" from="104010354" to="124812857#0" /><trip id="64" type="default_017" depart="57715.200000000186" from="25149219#1" to="-653473569#5" /><trip id="65" type="default_016" depart="57717.00000000019" from="201963537#1" to="-653473569#5" /><trip id="66" type="default_016" depart="57718.80000000019" from="653473569#5" to="124812857#0" /><trip id="67" type="default_017" depart="57720.600000000195" from="201963537#1" to="-653473569#5" /><trip id="68" type="random_016" depart="57722.4000000002" from="653473569#5" to="124812857#0" /><trip id="69" type="default_017" depart="57724.2000000002" from="104010354" to="124812857#0" /><trip id="70" type="default_017" depart="57726.000000000204" from="201963537#1" to="104012170" /><trip id="71" type="default_016" depart="57727.80000000021" from="201963537#1" to="104012170" /><trip id="72" type="default_017" depart="57729.60000000021" from="201963537#1" to="104012170" /><trip id="73" type="default_016" depart="57731.40000000021" from="201963537#1" to="-653473569#5" /><trip id="74" type="default_017" depart="57733.200000000215" from="653473569#5" to="104012170" /><trip id="75" type="default_017" depart="57735.00000000022" from="104010354" to="124812857#0" /><trip id="76" type="default_016" depart="57736.80000000022" from="201963537#1" to="-653473569#5" /><trip id="77" type="default_017" depart="57738.600000000224" from="653473569#5" to="124812857#0" /><trip id="78" type="default_017" depart="57740.40000000023" from="104010354" to="124812857#0" /><trip id="79" type="default_016" depart="57742.20000000023" from="653473569#5" to="104012170" /><trip id="80" type="default_016" depart="57744.00000000023" from="653473569#5" to="104012170" /><trip id="81" type="default_015" depart="57745.800000000236" from="201963537#1" to="-653473569#5" /><trip id="82" type="default_016" depart="57747.60000000024" from="104010354" to="124812857#0" /><trip id="83" type="default_017" depart="57749.40000000024" from="201963537#1" to="104012170" /><trip id="84" type="default_017" depart="57751.200000000244" from="653473569#5" to="124812857#0" /><trip id="85" type="default_017" depart="57753.00000000025" from="653473569#5" to="124812857#0" /><trip id="86" type="default_017" depart="57754.80000000025" from="104010354" to="124812857#0" /><trip id="87" type="default_017" depart="57756.60000000025" from="653473569#5" to="104012170" /><trip id="88" type="default_016" depart="57758.400000000256" from="25149219#1" to="104012170" /><trip id="89" type="default_016" depart="57760.20000000026" from="201963537#1" to="-653473569#5" /><trip id="90" type="random_017" depart="57762.00000000026" from="653473569#5" to="124812857#0" /><trip id="91" type="default_016" depart="57763.800000000265" from="25149219#1" to="-653473569#5" /><trip id="92" type="default_017" depart="57765.60000000027" from="104010354" to="124812857#0" /><trip id="93" type="default_017" depart="57767.40000000027" from="201963537#1" to="-653473569#5" /><trip id="94" type="random_016" depart="57769.20000000027" from="653473569#5" to="124812857#0" /><trip id="95" type="default_016" depart="57771.00000000028" from="201963537#1" to="-653473569#5" /><trip id="96" type="default_017" depart="57772.80000000028" from="104010354" to="124812857#0" /><trip id="97" type="default_016" depart="57774.60000000028" from="104010354" to="124812857#0" /><trip id="98" type="default_016" depart="57776.400000000285" from="201963537#1" to="-653473569#5" /><trip id="99" type="default_017" depart="57778.20000000029" from="25149219#1" to="104012170" /><trip id="100" type="default_017" depart="57780.00000000029" from="25149219#1" to="104012170" /><trip id="101" type="default_016" depart="57781.800000000294" from="653473569#5" to="104012170" /><trip id="102" type="default_017" depart="57783.6000000003" from="201963537#1" to="104012170" /><trip id="103" type="default_017" depart="57785.4000000003" from="653473569#5" to="124812857#0" /><trip id="104" type="default_017" depart="57787.2000000003" from="104010354" to="124812857#0" /><trip id="105" type="default_017" depart="57789.000000000306" from="653473569#5" to="124812857#0" /><trip id="106" type="default_016" depart="57790.80000000031" from="104010354" to="-653473569#5" /><trip id="107" type="default_016" depart="57792.60000000031" from="653473569#5" to="124812857#0" /><trip id="108" type="default_016" depart="57794.400000000314" from="201963537#1" to="104012170" /><trip id="109" type="default_017" depart="57796.20000000032" from="201963537#1" to="104012170" /><trip id="110" type="default_015" depart="57798.00000000032" from="201963537#1" to="-653473569#5" /><trip id="111" type="default_017" depart="57799.80000000032" from="653473569#5" to="104012170" /><trip id="112" type="default_016" depart="57801.600000000326" from="25149219#1" to="-653473569#5" /><trip id="113" type="default_016" depart="57803.40000000033" from="201963537#1" to="-653473569#5" /><trip id="114" type="default_016" depart="57805.20000000033" from="201963537#1" to="-653473569#5" /><trip id="115" type="random_016" depart="57807.000000000335" from="653473569#5" to="124812857#0" /><trip id="116" type="random_017" depart="57808.80000000034" from="104010354" to="124812857#0" /><trip id="117" type="default_017" depart="57810.60000000034" from="104010354" to="-653473569#5" /><trip id="118" type="default_016" depart="57812.40000000034" from="104010354" to="124812857#0" /><trip id="119" type="default_017" depart="57814.200000000346" from="104010354" to="124812857#0" /><trip id="120" type="random_017" depart="57816.00000000035" from="653473569#5" to="124812857#0" /><trip id="121" type="default_017" depart="57817.80000000035" from="653473569#5" to="124812857#0" /><trip id="122" type="default_017" depart="57819.600000000355" from="201963537#1" to="-653473569#5" /><trip id="123" type="default_016" depart="57821.40000000036" from="201963537#1" to="104012170" /><trip id="124" type="default_016" depart="57823.20000000036" from="25149219#1" to="-653473569#5" /><trip id="125" type="default_017" depart="57825.000000000364" from="653473569#5" to="104012170" /><trip id="126" type="default_016" depart="57826.80000000037" from="201963537#1" to="104012170" /><trip id="127" type="default_017" depart="57828.60000000037" from="653473569#5" to="104012170" /><trip id="128" type="default_017" depart="57830.40000000037" from="201963537#1" to="-653473569#5" /><trip id="129" type="default_016" depart="57832.200000000375" from="653473569#5" to="124812857#0" /><trip id="130" type="default_017" depart="57834.00000000038" from="201963537#1" to="104012170" /><trip id="131" type="default_017" depart="57835.80000000038" from="201963537#1" to="104012170" /><trip id="132" type="default_017" depart="57837.600000000384" from="653473569#5" to="124812857#0" /><trip id="133" type="default_017" depart="57839.40000000039" from="653473569#5" to="124812857#0" /><trip id="134" type="default_017" depart="57841.20000000039" from="201963537#1" to="104012170" /><trip id="135" type="default_017" depart="57843.00000000039" from="653473569#5" to="104012170" /><trip id="136" type="default_017" depart="57844.800000000396" from="653473569#5" to="124812857#0" /><trip id="137" type="default_016" depart="57846.6000000004" from="653473569#5" to="124812857#0" /><trip id="138" type="default_017" depart="57848.4000000004" from="104010354" to="124812857#0" /><trip id="139" type="random_016" depart="57850.200000000405" from="201963537#1" to="-653473569#5" /><trip id="140" type="default_016" depart="57852.00000000041" from="104010354" to="124812857#0" /><trip id="141" type="default_017" depart="57853.80000000041" from="201963537#1" to="104012170" /><trip id="142" type="default_017" depart="57855.60000000041" from="104010354" to="124812857#0" /><trip id="143" type="default_017" depart="57857.400000000416" from="201963537#1" to="104012170" /><trip id="144" type="default_016" depart="57859.20000000042" from="104010354" to="124812857#0" /><trip id="145" type="default_017" depart="57861.00000000042" from="104010354" to="124812857#0" /><trip id="146" type="default_016" depart="57862.800000000425" from="201963537#1" to="-653473569#5" /><trip id="147" type="random_017" depart="57864.60000000043" from="201963537#1" to="104012170" /><trip id="148" type="default_017" depart="57866.40000000043" from="201963537#1" to="-653473569#5" /><trip id="149" type="default_016" depart="57868.200000000434" from="25149219#1" to="-653473569#5" /><trip id="150" type="default_016" depart="57870.00000000044" from="201963537#1" to="-653473569#5" /><trip id="151" type="default_016" depart="57871.80000000044" from="201963537#1" to="104012170" /><trip id="152" type="default_016" depart="57873.60000000044" from="653473569#5" to="124812857#0" /><trip id="153" type="default_017" depart="57875.400000000445" from="25149219#1" to="-653473569#5" /><trip id="154" type="default_017" depart="57877.20000000045" from="104010354" to="124812857#0" /><trip id="155" type="default_017" depart="57879.00000000045" from="201963537#1" to="-653473569#5" /><trip id="156" type="random_017" depart="57880.800000000454" from="104010354" to="124812857#0" /><trip id="157" type="default_017" depart="57882.60000000046" from="653473569#5" to="124812857#0" /><trip id="158" type="random_017" depart="57884.40000000046" from="653473569#5" to="124812857#0" /><trip id="159" type="default_017" depart="57886.20000000046" from="653473569#5" to="124812857#0" /><trip id="160" type="default_017" depart="57888.000000000466" from="104010354" to="124812857#0" /><trip id="161" type="default_016" depart="57889.80000000047" from="201963537#1" to="-653473569#5" /><trip id="162" type="default_017" depart="57891.60000000047" from="104010354" to="124812857#0" /><trip id="163" type="random_017" depart="57893.400000000474" from="653473569#5" to="124812857#0" /><trip id="164" type="default_016" depart="57895.20000000048" from="201963537#1" to="-653473569#5" /><trip id="165" type="default_016" depart="57897.00000000048" from="201963537#1" to="-653473569#5" /><trip id="166" type="default_016" depart="57898.80000000048" from="104010354" to="124812857#0" /><trip id="167" type="default_017" depart="57900.600000000486" from="201963537#1" to="-653473569#5" /><trip id="168" type="default_017" depart="57902.40000000049" from="653473569#5" to="104012170" /><trip id="169" type="default_017" depart="57904.20000000049" from="201963537#1" to="104012170" /><trip id="170" type="default_016" depart="57906.000000000495" from="653473569#5" to="124812857#0" /><trip id="171" type="default_016" depart="57907.8000000005" from="104010354" to="124812857#0" /><trip id="172" type="default_017" depart="57909.6000000005" from="653473569#5" to="124812857#0" /><trip id="173" type="default_017" depart="57911.4000000005" from="104010354" to="124812857#0" /><trip id="174" type="default_017" depart="57913.20000000051" from="104010354" to="124812857#0" /><trip id="175" type="default_017" depart="57915.00000000051" from="653473569#5" to="124812857#0" /><trip id="176" type="default_017" depart="57916.80000000051" from="653473569#5" to="124812857#0" /><trip id="177" type="random_017" depart="57918.600000000515" from="201963537#1" to="-653473569#5" /><trip id="178" type="default_017" depart="57920.40000000052" from="653473569#5" to="104012170" /><trip id="179" type="default_016" depart="57922.20000000052" from="104010354" to="124812857#0" /><trip id="180" type="default_015" depart="57924.000000000524" from="201963537#1" to="104012170" /><trip id="181" type="default_016" depart="57925.80000000053" from="104010354" to="124812857#0" /><trip id="182" type="bus" depart="57927.60000000053" from="104010354" to="124812857#0" /><trip id="183" type="default_016" depart="57929.40000000053" from="201963537#1" to="104012170" /><trip id="184" type="default_017" depart="57931.200000000536" from="104010354" to="124812857#0" /><trip id="185" type="default_017" depart="57933.00000000054" from="104010354" to="124812857#0" /><trip id="186" type="default_017" depart="57934.80000000054" from="104010354" to="124812857#0" /><trip id="187" type="default_016" depart="57936.600000000544" from="104010354" to="124812857#0" /><trip id="188" type="default_017" depart="57938.40000000055" from="104010354" to="124812857#0" /><trip id="189" type="default_016" depart="57940.20000000055" from="25149219#1" to="-653473569#5" /><trip id="190" type="default_016" depart="57942.00000000055" from="104010354" to="124812857#0" /><trip id="191" type="default_017" depart="57943.800000000556" from="201963537#1" to="-653473569#5" /><trip id="192" type="default_017" depart="57945.60000000056" from="201963537#1" to="104012170" /><trip id="193" type="default_016" depart="57947.40000000056" from="201963537#1" to="104012170" /><trip id="194" type="default_017" depart="57949.200000000565" from="653473569#5" to="104012170" /><trip id="195" type="default_017" depart="57951.00000000057" from="25149219#1" to="104012170" /><trip id="196" type="default_017" depart="57952.80000000057" from="201963537#1" to="-653473569#5" /><trip id="197" type="default_016" depart="57954.60000000057" from="201963537#1" to="-653473569#5" /><trip id="198" type="default_017" depart="57956.400000000576" from="104010354" to="124812857#0" /><trip id="199" type="default_017" depart="57958.20000000058" from="201963537#1" to="104012170" /><trip id="200" type="default_017" depart="57960.00000000058" from="104010354" to="124812857#0" /><trip id="201" type="default_016" depart="57961.800000000585" from="653473569#5" to="124812857#0" /><trip id="202" type="default_017" depart="57963.60000000059" from="201963537#1" to="104012170" /><trip id="203" type="random_016" depart="57965.40000000059" from="201963537#1" to="104012170" /><trip id="204" type="default_016" depart="57967.200000000594" from="25149219#1" to="-653473569#5" /><trip id="205" type="default_017" depart="57969.0000000006" from="653473569#5" to="124812857#0" /><trip id="206" type="default_016" depart="57970.8000000006" from="201963537#1" to="104012170" /><trip id="207" type="default_017" depart="57972.6000000006" from="25149219#1" to="-653473569#5" /><trip id="208" type="default_016" depart="57974.400000000605" from="25149219#1" to="-653473569#5" /><trip id="209" type="random_017" depart="57976.20000000061" from="104010354" to="124812857#0" /><trip id="210" type="default_016" depart="57978.00000000061" from="104010354" to="124812857#0" /><trip id="211" type="default_017" depart="57979.800000000614" from="653473569#5" to="124812857#0" /><trip id="212" type="default_017" depart="57981.60000000062" from="104010354" to="-653473569#5" /><trip id="213" type="default_016" depart="57983.40000000062" from="25149219#1" to="-653473569#5" /><trip id="214" type="default_016" depart="57985.20000000062" from="104010354" to="124812857#0" /><trip id="215" type="default_017" depart="57987.000000000626" from="653473569#5" to="124812857#0" /><trip id="216" type="default_016" depart="57988.80000000063" from="25149219#1" to="-653473569#5" /><trip id="217" type="default_017" depart="57990.60000000063" from="104010354" to="124812857#0" /><trip id="218" type="random_017" depart="57992.400000000634" from="201963537#1" to="-653473569#5" /><trip id="219" type="default_016" depart="57994.20000000064" from="201963537#1" to="-653473569#5" /><trip id="220" type="default_016" depart="57996.00000000064" from="201963537#1" to="-653473569#5" /><trip id="221" type="default_017" depart="57997.80000000064" from="201963537#1" to="-653473569#5" /><trip id="222" type="default_016" depart="57999.600000000646" from="201963537#1" to="104012170" /><trip id="223" type="random_016" depart="58001.40000000065" from="201963537#1" to="-653473569#5" /><trip id="224" type="default_016" depart="58003.20000000065" from="653473569#5" to="124812857#0" /><trip id="225" type="default_017" depart="58005.000000000655" from="201963537#1" to="104012170" /><trip id="226" type="default_017" depart="58006.80000000066" from="653473569#5" to="124812857#0" /><trip id="227" type="default_017" depart="58008.60000000066" from="653473569#5" to="124812857#0" /><trip id="228" type="random_017" depart="58010.40000000066" from="201963537#1" to="-653473569#5" /><trip id="229" type="random_016" depart="58012.20000000067" from="25149219#1" to="-653473569#5" /><trip id="230" type="default_016" depart="58014.00000000067" from="201963537#1" to="-653473569#5" /><trip id="231" type="default_017" depart="58015.80000000067" from="201963537#1" to="104012170" /><trip id="232" type="default_017" depart="58017.600000000675" from="201963537#1" to="104012170" /><trip id="233" type="default_016" depart="58019.40000000068" from="201963537#1" to="104012170" /><trip id="234" type="default_017" depart="58021.20000000068" from="25149219#1" to="-653473569#5" /><trip id="235" type="default_016" depart="58023.000000000684" from="201963537#1" to="-653473569#5" /><trip id="236" type="random_017" depart="58024.80000000069" from="201963537#1" to="104012170" /><trip id="237" type="default_017" depart="58026.60000000069" from="201963537#1" to="104012170" /><trip id="238" type="default_017" depart="58028.40000000069" from="104010354" to="124812857#0" /><trip id="239" type="default_017" depart="58030.200000000696" from="653473569#5" to="124812857#0" /><trip id="240" type="default_017" depart="58032.0000000007" from="25149219#1" to="-653473569#5" /><trip id="241" type="default_017" depart="58033.8000000007" from="201963537#1" to="104012170" /><trip id="242" type="default_016" depart="58035.600000000704" from="201963537#1" to="104012170" /><trip id="243" type="default_016" depart="58037.40000000071" from="201963537#1" to="104012170" /><trip id="244" type="default_016" depart="58039.20000000071" from="25149219#1" to="-653473569#5" /><trip id="245" type="default_016" depart="58041.00000000071" from="104010354" to="124812857#0" /><trip id="246" type="default_016" depart="58042.800000000716" from="25149219#1" to="-653473569#5" /><trip id="247" type="default_016" depart="58044.60000000072" from="201963537#1" to="-653473569#5" /><trip id="248" type="default_017" depart="58046.40000000072" from="104010354" to="-653473569#5" /><trip id="249" type="default_016" depart="58048.200000000725" from="653473569#5" to="104012170" /><trip id="250" type="default_017" depart="58050.00000000073" from="653473569#5" to="124812857#0" /><trip id="251" type="default_017" depart="58051.80000000073" from="104010354" to="124812857#0" /><trip id="252" type="default_017" depart="58053.60000000073" from="201963537#1" to="104012170" /><trip id="253" type="default_017" depart="58055.400000000736" from="25149219#1" to="-653473569#5" /><trip id="254" type="random_016" depart="58057.20000000074" from="25149219#1" to="-653473569#5" /><trip id="255" type="default_016" depart="58059.00000000074" from="201963537#1" to="104012170" /><trip id="256" type="default_017" depart="58060.800000000745" from="201963537#1" to="104012170" /><trip id="257" type="default_016" depart="58062.60000000075" from="653473569#5" to="124812857#0" /><trip id="258" type="default_016" depart="58064.40000000075" from="25149219#1" to="-653473569#5" /><trip id="259" type="default_016" depart="58066.200000000754" from="201963537#1" to="-653473569#5" /><trip id="260" type="default_016" depart="58068.00000000076" from="25149219#1" to="-653473569#5" /><trip id="261" type="default_017" depart="58069.80000000076" from="104010354" to="124812857#0" /><trip id="262" type="default_017" depart="58071.60000000076" from="25149219#1" to="-653473569#5" /><trip id="263" type="default_016" depart="58073.400000000765" from="201963537#1" to="-653473569#5" /><trip id="264" type="default_017" depart="58075.20000000077" from="104010354" to="124812857#0" /><trip id="265" type="random_017" depart="58077.00000000077" from="201963537#1" to="-653473569#5" /><trip id="266" type="default_017" depart="58078.800000000774" from="201963537#1" to="-653473569#5" /><trip id="267" type="default_017" depart="58080.60000000078" from="104010354" to="-653473569#5" /><trip id="268" type="default_017" depart="58082.40000000078" from="653473569#5" to="104012170" /><trip id="269" type="default_016" depart="58084.20000000078" from="653473569#5" to="104012170" /><trip id="270" type="default_017" depart="58086.000000000786" from="653473569#5" to="104012170" /><trip id="271" type="random_016" depart="58087.80000000079" from="653473569#5" to="124812857#0" /><trip id="272" type="default_017" depart="58089.60000000079" from="653473569#5" to="124812857#0" /><trip id="273" type="default_016" depart="58091.400000000795" from="201963537#1" to="104012170" /><trip id="274" type="default_016" depart="58093.2000000008" from="653473569#5" to="124812857#0" /><trip id="275" type="random_016" depart="58095.0000000008" from="201963537#1" to="104012170" /><trip id="276" type="default_017" depart="58096.8000000008" from="104010354" to="124812857#0" /><trip id="277" type="default_017" depart="58098.600000000806" from="25149219#1" to="-6