<routes xmlns:xsi="http://www.w3.org/2001/XMLSchema-instance" xsi:noNamespaceSchemaLocation="http://sumo.dlr.de/xsd/routes_file.xsd">
	<vType id="pkw" vClass="passenger" speedDev="0.1" length="4.3" minGap="1.5" />
<vehicle id="0" type="pkw" depart="25200"><route edges="41910186" /></vehicle><vehicle id="1" type="pkw" depart="25201.2"><route edges="31864804 200818108#0 4999331#0" /></vehicle><vehicle id="2" type="pkw" depart="25202.4"><route edges="41910186 -241660955#3 -200818108#1 -31864804" /></vehicle><vehicle id="3" type="pkw" depart="25203.600000000002"><route edges="-5229966#3 319261593#15 8197886#0 200818108#0 4145590#0" /></vehicle><vehicle id="4" type="pkw" depart="25204.800000000003"><route edges="31864804 200818108#0 4145590#0" /></vehicle><vehicle id="5" type="pkw" depart="25206.000000000004"><route edges="319261593#12 319261593#15 8197886#0 -31864804" /></vehicle><vehicle id="6" type="pkw" depart="25207.200000000004"><route edges="-241660955#17 -241660955#16 -241660955#13 -41910184" /></vehicle><vehicle id="7" type="pkw" depart="25208.400000000005"><route edges="319261593#12 319261593#15 319261593#16 -200818108#1 -31864804" /></vehicle><vehicle id="8" type="pkw" depart="25209.600000000006"><route edges="41910186 31800061#0" /></vehicle><vehicle id="9" type="pkw" depart="25210.800000000007"><route edges="31864804 200818108#0 241660955#0 241660955#4 -4999334" /></vehicle><vehicle id="10" type="pkw" depart="25212.000000000007"><route edges="319261593#12 319261593#15 319261593#16 4145590#0" /></vehicle><vehicle id="11" type="pkw" depart="25213.200000000008"><route edges="-130160207#0 241660955#17" /></vehicle><vehicle id="12" type="pkw" depart="25214.40000000001"><route edges="31864804 200818108#0 4999331#0" /></vehicle><vehicle id="13" type="pkw" depart="25215.60000000001"><route edges="-5229966#3 319261593#15 319261593#16 4145590#0" /></vehicle><vehicle id="14" type="pkw" depart="25216.80000000001"><route edges="41910184 241660955#13 241660955#14 130160207#0" /></vehicle><vehicle id="15" type="pkw" depart="25218.00000000001"><route edges="-41910185#2 -4045329#5" /></vehicle><vehicle id="16" type="pkw" depart="25219.20000000001"><route edges="4045329#5 241660955#10 241660955#11 241660955#13 241660955#14 241660955#17" /></vehicle><vehicle id="17" type="pkw" depart="25220.400000000012"><route edges="-130160207#0 241660955#17" /></vehicle><vehicle id="18" type="pkw" depart="25221.600000000013"><route edges="241660957#0 4999331#0" /></vehicle><vehicle id="19" type="pkw" depart="25222.800000000014"><route edges="41910184 241660955#13 4145589#0" /></vehicle><vehicle id="20" type="pkw" depart="25224.000000000015"><route edges="31864804 200818108#0 4145590#0" /></vehicle><vehicle id="21" type="pkw" depart="25225.200000000015"><route edges="31864804 200818108#0 241660955#0 241660955#4 -4999334" /></vehicle><vehicle id="22" type="pkw" depart="25226.400000000016"><route edges="-241660955#3 241660955#0 -41910186" /></vehicle><vehicle id="23" type="pkw" depart="25227.600000000017"><route edges="-130160207#0 241660955#17" /></vehicle><vehicle id="24" type="pkw" depart="25228.800000000017"><route edges="41910184 241660955#13 241660955#14 241660955#17" /></vehicle><vehicle id="25" type="pkw" depart="25230.00000000002"><route edges="-31800061#0 241660955#4 -4999334" /></vehicle><vehicle id="26" type="pkw" depart="25231.20000000002"><route edges="241660957#0 4999331#0" /></vehicle><vehicle id="27" type="pkw" depart="25232.40000000002"><route edges="-241660955#17 -241660955#16 -241660955#13 -41910184" /></vehicle><vehicle id="28" type="pkw" depart="25233.60000000002"><route edges="31864804 200818108#0 241660955#0 241660955#4 241660955#6 241660955#7 -241660955#9 -241660955#6 -241660955#5 -241660955#3 4145590#0" /></vehicle><vehicle id="29" type="pkw" depart="25234.80000000002"><route edges="31864804 200818108#0 4145590#0" /></vehicle><vehicle id="30" type="pkw" depart="25236.000000000022"><route edges="4999334 -241660955#5 -241660955#3 -200818108#1 -31864804" /></vehicle><vehicle id="31" type="pkw" depart="25237.200000000023"><route edges="-130160207#0 241660955#17" /></vehicle><vehicle id="32" type="pkw" depart="25238.400000000023"><route edges="41910184 241660955#13 241660955#14 241660955#17" /></vehicle><vehicle id="33" type="pkw" depart="25239.600000000024"><route edges="41910186 -241660955#3 -200818108#1 -31864804" /></vehicle><vehicle id="34" type="pkw" depart="25240.800000000025"><route edges="-241660955#17 -241660955#16 -241660955#13 -41910184" /></vehicle><vehicle id="35" type="pkw" depart="25242.000000000025"><route edges="241660957#0 4999331#0" /></vehicle><vehicle id="36" type="pkw" depart="25243.200000000026"><route edges="-130160207#0 -241660955#16 -241660955#13 -41910184" /></vehicle><vehicle id="37" type="pkw" depart="25244.400000000027"><route edges="241660957#0 4999331#0" /></vehicle><vehicle id="38" type="pkw" depart="25245.600000000028"><route edges="-5229966#3 319261593#15 319261593#16 4999331#0" /></vehicle><vehicle id="39" type="pkw" depart="25246.80000000003"><route edges="31864804 200818108#0 4999331#0" /></vehicle><vehicle id="40" type="pkw" depart="25248.00000000003"><route edges="-241660955#17 -241660955#16 -241660955#13 -41910184" /></vehicle><vehicle id="41" type="pkw" depart="25249.20000000003"><route edges="-130160207#0 241660955#17 -241660955#17 -241660955#16 4145589#0" /></vehicle><vehicle id="42" type="pkw" depart="25250.40000000003"><route edges="-41910185#2 -4045329#5" /></vehicle><vehicle id="43" type="pkw" depart="25251.60000000003"><route edges="-130160207#0 241660955#17" /></vehicle><vehicle id="44" type="pkw" depart="25252.800000000032"><route edges="241660957#0 4999331#0" /></vehicle><vehicle id="45" type="pkw" depart="25254.000000000033"><route edges="319261593#12 319261593#15 319261593#16 4145590#0" /></vehicle><vehicle id="46" type="pkw" depart="25255.200000000033"><route edges="319261593#12 319261593#15 319261593#16 -200818108#1 -31864804" /></vehicle><vehicle id="47" type="pkw" depart="25256.400000000034"><route edges="-31800061#0 -41910186" /></vehicle><vehicle id="48" type="pkw" depart="25257.600000000035"><route edges="-241660955#17 -241660955#16 -241660955#13 -41910184" /></vehicle><vehicle id="49" type="pkw" depart="25258.800000000036"><route edges="-5229966#3 319261593#15 319261593#16 4999331#0" /></vehicle><vehicle id="50" type="pkw" depart="25260.000000000036"><route edges="-130160207#0 241660955#17" /></vehicle><vehicle id="51" type="pkw" depart="25261.200000000037"><route edges="241660957#0 241660955#0 241660955#4 241660955#6 241660955#7 241660955#10 241660955#11 241660955#13 241660955#14 241660955#17" /></vehicle><vehicle id="52" type="pkw" depart="25262.400000000038"><route edges="4999334 -241660955#5 31800061#0" /></vehicle><vehicle id="53" type="pkw" depart="25263.60000000004"><route edges="241660957#0 4999331#0" /></vehicle><vehicle id="54" type="pkw" depart="25264.80000000004"><route edges="41910184 241660955#13 241660955#14 241660955#17" /></vehicle><vehicle id="55" type="pkw" depart="25266.00000000004"><route edges="241660957#0 -200818108#1 -31864804" /></vehicle><vehicle id="56" type="pkw" depart="25267.20000000004"><route edges="241660957#0 4999331#0" /></vehicle><vehicle id="57" type="pkw" depart="25268.40000000004"><route edges="-5229966#3 319261593#15 319261593#16 241660955#0 -241660955#3" /></vehicle><vehicle id="58" type="pkw" depart="25269.600000000042"><route edges="241660957#0 4999331#0" /></vehicle><vehicle id="59" type="pkw" depart="25270.800000000043"><route edges="-130160207#0 -241660955#16 -241660955#13 -41910184" /></vehicle><vehicle id="60" type="pkw" depart="25272.000000000044"><route edges="-130160207#0 241660955#17" /></vehicle><vehicle id="61" type="pkw" depart="25273.200000000044"><route edges="41910186 -241660955#3 -200818108#1 -31864804" /></vehicle><vehicle id="62" type="pkw" depart="25274.400000000045"><route edges="241660957#0 4999331#0" /></vehicle><vehicle id="63" type="pkw" depart="25275.600000000046"><route edges="31864804 200818108#0 4999331#0" /></vehicle><vehicle id="64" type="pkw" depart="25276.800000000047"><route edges="-241660955#17 -241660955#16 -241660955#13 -241660955#12 -241660955#10 -241660955#9 -241660955#6 -241660955#5 -241660955#3 -200818108#1 -31864804" /></vehicle><vehicle id="65" type="pkw" depart="25278.000000000047"><route edges="4045329#5 241660955#10 -4045330" /></vehicle><vehicle id="66" type="pkw" depart="25279.200000000048"><route edges="-4045329#5" /></vehicle><vehicle id="67" type="pkw" depart="25280.40000000005"><route edges="319261593#12 319261593#15 319261593#16 4145590#0" /></vehicle><vehicle id="68" type="pkw" depart="25281.60000000005"><route edges="241660957#0 4999331#0" /></vehicle><vehicle id="69" type="pkw" depart="25282.80000000005"><route edges="31864804 200818108#0 4999331#0" /></vehicle><vehicle id="70" type="pkw" depart="25284.00000000005"><route edges="319261593#12 319261593#15 319261593#16 241660955#0 241660955#4 241660955#6 241660955#7 241660955#10 241660955#11 241660955#13 241660955#14 241660955#17" /></vehicle><vehicle id="71" type="pkw" depart="25285.20000000005"><route edges="31864804 200818108#0 241660955#0 241660955#4 241660955#6 241660955#7 241660955#10 241660955#11 241660955#13 241660955#14 241660955#17" /></vehicle><vehicle id="72" type="pkw" depart="25286.400000000052"><route edges="-130160207#0 241660955#17" /></vehicle><vehicle id="73" type="pkw" depart="25287.600000000053"><route edges="-31800061#0 241660955#4 -4999334" /></vehicle><vehicle id="74" type="pkw" depart="25288.800000000054"><route edges="241660957#0 4999331#0" /></vehicle><vehicle id="75" type="pkw" depart="25290.000000000055"><route edges="41910184 241660955#13 -241660955#13 -241660955#12 -241660955#10 -241660955#9 -241660955#6 -241660955#5 31800061#0" /></vehicle><vehicle id="76" type="pkw" depart="25291.200000000055"><route edges="41910186 -241660955#3 4145590#0" /></vehicle><vehicle id="77" type="pkw" depart="25292.400000000056"><route edges="-41910185#2 -4045329#5" /></vehicle><vehicle id="78" type="pkw" depart="25293.600000000057"><route edges="319261593#12 319261593#15 319261593#16 241660955#0 241660955#4 241660955#6 241660955#7 241660955#10 241660955#11 241660955#13 241660955#14 241660955#17" /></vehicle><vehicle id="79" type="pkw" depart="25294.800000000057"><route edges="241660957#0 4999331#0" /></vehicle><vehicle id="80" type="pkw" depart="25296.00000000006"><route edges="319261593#12" /></vehicle><vehicle id="81" type="pkw" depart="25297.20000000006"><route edges="241660955#13 241660955#14 241660955#17" /></vehicle><vehicle id="82" type="pkw" depart="25298.40000000006"><route edges="4045329#5 41910185#0" /></vehicle><vehicle id="83" type="pkw" depart="25299.60000000006"><route edges="41910184 241660955#13 241660955#14 -241660955#16 -241660955#13 -41910184" /></vehicle><vehicle id="84" type="pkw" depart="25300.80000000006"><route edges="-130160207#0 241660955#17" /></vehicle><vehicle id="85" type="pkw" depart="25302.000000000062"><route edges="241660957#0 -200818108#1 -31864804" /></vehicle><vehicle id="86" type="pkw" depart="25303.200000000063"><route edges="-130160207#0 241660955#17" /></vehicle><vehicle id="87" type="pkw" depart="25304.400000000063"><route edges="319261593#12 319261593#15 319261593#16 4145590#0" /></vehicle><vehicle id="88" type="pkw" depart="25305.600000000064"><route edges="-241660955#17 -241660955#16 -241660955#13 -41910184" /></vehicle><vehicle id="89" type="pkw" depart="25306.800000000065"><route edges="-31800061#0 241660955#4 241660955#6 241660955#7 241660955#10 241660955#11 -41910184" /></vehicle><vehicle id="90" type="pkw" depart="25308.000000000065"><route edges="-5229966#3 319261593#15 319261593#16 241660955#0 241660955#4 241660955#6 241660955#7 241660955#10 241660955#11 -41910184" /></vehicle><vehicle id="91" type="pkw" depart="25309.200000000066"><route edges="241660957#0 4999331#0" /></vehicle><vehicle id="92" type="pkw" depart="25310.400000000067"><route edges="241660957#0 4145590#0" /></vehicle><vehicle id="93" type="pkw" depart="25311.600000000068"><route edges="241660957#0 4999331#0" /></vehicle><vehicle id="94" type="pkw" depart="25312.80000000007"><route edges="31864804 200818108#0 241660955#0 241660955#4 241660955#6 241660955#7 241660955#10 241660955#11 241660955#13 241660955#14 241660955#17" /></vehicle><vehicle id="95" type="pkw" depart="25314.00000000007"><route edges="-31800061#0 -41910186" /></vehicle><vehicle id="96" type="pkw" depart="25315.20000000007"><route edges="241660957#0 -200818108#1 -31864804" /></vehicle><vehicle id="97" type="pkw" depart="25316.40000000007"><route edges="31864804 200818108#0 241660955#0 241660955#4 241660955#6 241660955#7 241660955#10 241660955#11 241660955#13 241660955#14 241660955#17" /></vehicle><vehicle id="98" type="pkw" depart="25317.60000000007"><route edges="41910184 241660955#13 4145589#0" /></vehicle><vehicle id="99" type="pkw" depart="25318.800000000072"><route edges="-241660955#17 -241660955#16 4145589#0" /></vehicle><vehicle id="100" type="pkw" depart="25320.000000000073"><route edges="241660957#0 4999331#0" /></vehicle><vehicle id="101" type="pkw" depart="25321.200000000073"><route edges="4045329#5 41910185#0" /></vehicle><vehicle id="102" type="pkw" depart="25322.400000000074"><route edges="241660957#0 4999331#0" /></vehicle><vehicle id="103" type="pkw" depart="25323.600000000075"><route edges="319261593#12 319261593#15 319261593#16 4145590#0" /></vehicle><vehicle id="104" type="pkw" depart="25324.800000000076"><route edges="-241660955#17 -241660955#16 -241660955#13 -241660955#12 -241660955#10 -241660955#9 -241660955#6 -241660955#5 31800061#0" /></vehicle><vehicle id="105" type="pkw" depart="25326.000000000076"><route edges="241660955#4 -241660955#5 -241660955#3 -200818108#1 -31864804" /></vehicle><vehicle id="106" type="pkw" depart="25327.200000000077"><route edges="319261593#12 319261593#15 319261593#16 -200818108#1 -31864804" /></vehicle><vehicle id="107" type="pkw" depart="25328.400000000078"><route edges="4045329#5 241660955#10 -4045330" /></vehicle><vehicle id="108" type="pkw" depart="25329.60000000008"><route edges="-5229966#3 319261593#15 319261593#16 4145590#0" /></vehicle><vehicle id="109" type="pkw" depart="25330.80000000008"><route edges="31864804 200818108#0 241660955#0 241660955#4 241660955#6 241660955#7 41910185#0" /></vehicle><vehicle id="110" type="pkw" depart="25332.00000000008"><route edges="-41910185#2 -4045329#5" /></vehicle><vehicle id="111" type="pkw" depart="25333.20000000008"><route edges="241660957#0 -200818108#1 -31864804" /></vehicle><vehicle id="112" type="pkw" depart="25334.40000000008"><route edges="241660957#0 4999331#0" /></vehicle><vehicle id="113" type="pkw" depart="25335.600000000082"><route edges="241660957#0 4999331#0" /></vehicle><vehicle id="114" type="pkw" depart="25336.800000000083"><route edges="-130160207#0 241660955#17" /></vehicle><vehicle id="115" type="pkw" depart="25338.000000000084"><route edges="41910184 241660955#13 4145589#0" /></vehicle><vehicle id="116" type="pkw" depart="25339.200000000084"><route edges="-5229966#3 319261593#15 319261593#16 241660955#0 241660955#4 241660955#6 241660955#7 241660955#10 241660955#11 241660955#13 241660955#14 241660955#17" /></vehicle><vehicle id="117" type="pkw" depart="25340.400000000085"><route edges="-31800061#0 -41910186" /></vehicle><vehicle id="118" type="pkw" depart="25341.600000000086"><route edges="-130160207#0 241660955#17" /></vehicle><vehicle id="119" type="pkw" depart="25342.800000000087"><route edges="319261593#12 319261593#15 319261593#16 241660955#0 241660955#4 241660955#6 4045332#0" /></vehicle><vehicle id="120" type="pkw" depart="25344.000000000087"><route edges="31864804 200818108#0 4999331#0" /></vehicle><vehicle id="121" type="pkw" depart="25345.200000000088"><route edges="-5229966#3 319261593#15 319261593#16 -200818108#1 -31864804" /></vehicle><vehicle id="122" type="pkw" depart="25346.40000000009"><route edges="-4999334" /></vehicle><vehicle id="123" type="pkw" depart="25347.60000000009"><route edges="241660957#0 241660955#0 -41910186" /></vehicle><vehicle id="124" type="pkw" depart="25348.80000000009"><route edges="241660957#0 4999331#0" /></vehicle><vehicle id="125" type="pkw" depart="25350.00000000009"><route edges="31864804 200818108#0 241660955#0 241660955#4 241660955#6 241660955#7 241660955#10 241660955#11 241660955#13 241660955#14 241660955#17" /></vehicle><vehicle id="126" type="pkw" depart="25351.20000000009"><route edges="241660957#0 4999331#0" /></vehicle><vehicle id="127" type="pkw" depart="25352.400000000092"><route edges="4999334 -241660955#5 -241660955#3 -200818108#1 -31864804" /></vehicle><vehicle id="128" type="pkw" depart="25353.600000000093"><route edges="-31800061#0 241660955#4 241660955#6 241660955#7 241660955#10 241660955#11 241660955#13 241660955#14 241660955#17" /></vehicle><vehicle id="129" type="pkw" depart="25354.800000000094"><route edges="-241660955#17 -241660955#16 -241660955#13 -41910184" /></vehicle><vehicle id="130" type="pkw" depart="25356.000000000095"><route edges="4045329#5 41910185#0" /></vehicle><vehicle id="131" type="pkw" depart="25357.200000000095"><route edges="-130160207#0 241660955#17" /></vehicle><vehicle id="132" type="pkw" depart="25358.400000000096"><route edges="-241660955#17 -241660955#16 -241660955#13 -241660955#12 -241660955#10 -241660955#9 -241660955#6 -241660955#5 -241660955#3 -200818108#1 -31864804" /></vehicle><vehicle id="133" type="pkw" depart="25359.600000000097"><route edges="41910184 241660955#13 241660955#14 241660955#17" /></vehicle><vehicle id="134" type="pkw" depart="25360.800000000097"><route edges="41910184 241660955#13 241660955#14 241660955#17" /></vehicle><vehicle id="135" type="pkw" depart="25362.0000000001"><route edges="31864804 200818108#0 4145590#0" /></vehicle><vehicle id="136" type="pkw" depart="25363.2000000001"><route edges="-241660955#17 -241660955#16 -241660955#13 -41910184" /></vehicle><vehicle id="137" type="pkw" depart="25364.4000000001"><route edges="-241660955#17 -241660955#16 -241660955#13 -241660955#12 -241660955#10 -241660955#9 4045332#0" /></vehicle><vehicle id="138" type="pkw" depart="25365.6000000001"><route edges="4045329#5 41910185#0" /></vehicle><vehicle id="139" type="pkw" depart="25366.8000000001"><route edges="319261593#12 319261593#15 319261593#16 241660955#0 241660955#4 241660955#6 241660955#7 241660955#10 241660955#11 241660955#13 241660955#14 241660955#17" /></vehicle><vehicle id="140" type="pkw" depart="25368.000000000102"><route edges="4045330 241660955#11 -41910184" /></vehicle><vehicle id="141" type="pkw" depart="25369.200000000103"><route edges="241660957#0 4999331#0" /></vehicle><vehicle id="142" type="pkw" depart="25370.400000000103"><route edges="241660957#0 4999331#0" /></vehicle><vehicle id="143" type="pkw" depart="25371.600000000104"><route edges="-31800061#0 -41910186" /></vehicle><vehicle id="144" type="pkw" depart="25372.800000000105"><route edges="41910184 241660955#13 -241660955#13 -241660955#12 -241660955#10 -241660955#9 -241660955#6 -241660955#5 31800061#0" /></vehicle><vehicle id="145" type="pkw" depart="25374.000000000106"><route edges="241660955#11 241660955#13 241660955#14 241660955#17" /></vehicle><vehicle id="146" type="pkw" depart="25375.200000000106"><route edges="4045329#5 41910185#0" /></vehicle><vehicle id="147" type="pkw" depart="25376.400000000107"><route edges="-130160207#0 241660955#17" /></vehicle><vehicle id="148" type="pkw" depart="25377.600000000108"><route edges="-5229966#3 319261593#15 319261593#16 241660955#0 -241660955#3" /></vehicle><vehicle id="149" type="pkw" depart="25378.80000000011"><route edges="41910184 241660955#13 241660955#14 241660955#17" /></vehicle><vehicle id="150" type="pkw" depart="25380.00000000011"><route edges="241660957#0 4999331#0" /></vehicle><vehicle id="151" type="pkw" depart="25381.20000000011"><route edges="319261593#12" /></vehicle><vehicle id="152" type="pkw" depart="25382.40000000011"><route edges="31864804 200818108#0 241660955#0 241660955#4 241660955#6 241660955#7 241660955#10 241660955#11 241660955#13 241660955#14 241660955#17" /></vehicle><vehicle id="153" type="pkw" depart="25383.60000000011"><route edges="241660957#0 4999331#0" /></vehicle><vehicle id="154" type="pkw" depart="25384.800000000112"><route edges="-5229966#3 319261593#15 319261593#16 4145590#0" /></vehicle><vehicle id="155" type="pkw" depart="25386.000000000113"><route edges="41910184 241660955#13 241660955#14 241660955#17" /></vehicle><vehicle id="156" type="pkw" depart="25387.200000000114"><route edges="41910184 241660955#13 241660955#14 241660955#17" /></vehicle><vehicle id="157" type="pkw" depart="25388.400000000114"><route edges="-31800061#0 -41910186" /></vehicle><vehicle id="158" type="pkw" depart="25389.600000000115"><route edges="31864804 200818108#0 241660955#0 241660955#4 241660955#6 4045332#0" /></vehicle><vehicle id="159" type="pkw" depart="25390.800000000116"><route edges="319261593#12 319261593#15 319261593#16 4145590#0" /></vehicle><vehicle id="160" type="pkw" depart="25392.000000000116"><route edges="31864804 200818108#0 4999331#0" /></vehicle><vehicle id="161" type="pkw" depart="25393.200000000117"><route edges="241660957#0 4999331#0" /></vehicle><vehicle id="162" type="pkw" depart="25394.400000000118"><route edges="-241660955#17 130160207#0" /></vehicle><vehicle id="163" type="pkw" depart="25395.60000000012"><route edges="-41910185#2 -4045329#5" /></vehicle><vehicle id="164" type="pkw" depart="25396.80000000012"><route edges="241660957#0 4999331#0" /></vehicle><vehicle id="165" type="pkw" depart="25398.00000000012"><route edges="4045330 241660955#11 -241660955#12" /></vehicle><vehicle id="166" type="pkw" depart="25399.20000000012"><route edges="31864804 200818108#0 4999331#0" /></vehicle><vehicle id="167" type="pkw" depart="25400.40000000012"><route edges="-41910185#2 -4045329#5" /></vehicle><vehicle id="168" type="pkw" depart="25401.600000000122"><route edges="-241660955#12 -241660955#10 -241660955#9 4045332#0" /></vehicle><vehicle id="169" type="pkw" depart="25402.800000000123"><route edges="31864804 200818108#0 241660955#0 241660955#4 241660955#6 241660955#7 241660955#10 241660955#11 241660955#13 241660955#14 241660955#17" /></vehicle><vehicle id="170" type="pkw" depart="25404.000000000124"><route edges="-130160207#0 241660955#17" /></vehicle><vehicle id="171" type="pkw" depart="25405.200000000124"><route edges="-31800061#0 -41910186" /></vehicle><vehicle id="172" type="pkw" depart="25406.400000000125"><route edges="319261593#12 319261593#15 319261593#16 4145590#0" /></vehicle><vehicle id="173" type="pkw" depart="25407.600000000126"><route edges="241660957#0 4999331#0" /></vehicle><vehicle id="174" type="pkw" depart="25408.800000000127"><route edges="41910184 241660955#13 4145589#0" /></vehicle><vehicle id="175" type="pkw" depart="25410.000000000127"><route edges="-130160207#0 130160207#0 -130160207#0 -241660955#16 241660955#14 241660955#17" /></vehicle><vehicle id="176" type="pkw" depart="25411.200000000128"><route edges="-5229966#3 319261593#15 319261593#16 4999331#0" /></vehicle><vehicle id="177" type="pkw" depart="25412.40000000013"><route edges="-241660955#17 -241660955#16 -241660955#13 -241660955#12 -241660955#10 -241660955#9 -241660955#6 -241660955#5 -241660955#3 -200818108#1 -31864804" /></vehicle><vehicle id="178" type="pkw" depart="25413.60000000013"><route edges="4999334 -241660955#5 -241660955#3 4145590#0" /></vehicle><vehicle id="179" type="pkw" depart="25414.80000000013"><route edges="41910184 241660955#13 241660955#14 241660955#17" /></vehicle><vehicle id="180" type="pkw" depart="25416.00000000013"><route edges="-241660955#17 -241660955#16 -241660955#13 -41910184" /></vehicle><vehicle id="181" type="pkw" depart="25417.20000000013"><route edges="-31800061#0 241660955#4 241660955#6 241660955#7 241660955#10 -4045330 4045330" /></vehicle><vehicle id="182" type="pkw" depart="25418.400000000132"><route edges="41910184 241660955#13 241660955#14 241660955#17" /></vehicle><vehicle id="183" type="pkw" depart="25419.600000000133"><route edges="-5229966#3 319261593#15 319261593#16 4145590#0" /></vehicle><vehicle id="184" type="pkw" depart="25420.800000000134"><route edges="4045330 241660955#11 -41910184" /></vehicle><vehicle id="185" type="pkw" depart="25422.000000000135"><route edges="-5229966#3 319261593#15 319261593#16 4145590#0" /></vehicle><vehicle id="186" type="pkw" depart="25423.200000000135"><route edges="241660957#0 4999331#0" /></vehicle><vehicle id="187" type="pkw" depart="25424.400000000136"><route edges="319261593#12 319261593#15 319261593#16 -200818108#1 -31864804" /></vehicle><vehicle id="188" type="pkw" depart="25425.600000000137"><route edges="41910186 -241660955#3 4999331#0" /></vehicle><vehicle id="189" type="pkw" depart="25426.800000000138"><route edges="-5229966#3 319261593#15 319261593#16 -200818108#1 -31864804" /></vehicle><vehicle id="190" type="pkw" depart="25428.00000000014"><route edges="31864804 200818108#0 241660955#0 241660955#4 241660955#6 241660955#7 241660955#10 241660955#11 241660955#13 241660955#14 241660955#17" /></vehicle><vehicle id="191" type="pkw" depart="25429.20000000014"><route edges="31864804 200818108#0 4145590#0" /></vehicle><vehicle id="192" type="pkw" depart="25430.40000000014"><route edges="241660957#0 4999331#0" /></vehicle><vehicle id="193" type="pkw" depart="25431.60000000014"><route edges="-41910185#2 -4045329#5" /></vehicle><vehicle id="194" type="pkw" depart="25432.80000000014"><route edges="4045330 -241660955#10 -241660955#9 -241660955#6 -241660955#5 31800061#0" /></vehicle><vehicle id="195" type="pkw" depart="25434.000000000142"><route edges="4045329#5 241660955#10 241660955#11 241660955#13 241660955#14 241660955#17" /></vehicle><vehicle id="196" type="pkw" depart="25435.200000000143"><route edges="31864804 200818108#0 4999331#0" /></vehicle><vehicle id="197" type="pkw" depart="25436.400000000143"><route edges="241660957#0 4999331#0" /></vehicle><vehicle id="198" type="pkw" depart="25437.600000000144"><route edges="241660957#0 4999331#0" /></vehicle><vehicle id="199" type="pkw" depart="25438.800000000145"><route edges="4999334 -4999334" /></vehicle><vehicle id="200" type="pkw" depart="25440.000000000146"><route edges="-241660955#17 -241660955#16 -241660955#13 -241660955#12 -241660955#10 -241660955#9 -241660955#6 -241660955#5 -241660955#3 -200818108#1 -31864804" /></vehicle><vehicle id="201" type="pkw" depart="25441.200000000146"><route edges="41910184 241660955#13 241660955#14 130160207#0 -130160207#0 241660955#17" /></vehicle><vehicle id="202" type="pkw" depart="25442.400000000147"><route edges="-130160207#0 241660955#17 -241660955#17 -241660955#16 -241660955#13 -41910184" /></vehicle><vehicle id="203" type="pkw" depart="25443.600000000148"><route edges="41910184 -241660955#12 -241660955#10 -241660955#9 -241660955#6 -241660955#5 -241660955#3 -200818108#1 -31864804" /></vehicle><vehicle id="204" type="pkw" depart="25444.80000000015"><route edges="-130160207#0 -241660955#16 -241660955#13 -41910184" /></vehicle><vehicle id="205" type="pkw" depart="25446.00000000015"><route edges="-5229966#3 319261593#15 319261593#16 4145590#0" /></vehicle><vehicle id="206" type="pkw" depart="25447.20000000015"><route edges="31864804 200818108#0 241660955#0 241660955#4 241660955#6 241660955#7 241660955#10 241660955#11 241660955#13 241660955#14 241660955#17" /></vehicle><vehicle id="207" type="pkw" depart="25448.40000000015"><route edges="241660957#0 4999331#0" /></vehicle><vehicle id="208" type="pkw" depart="25449.60000000015"><route edges="31864804 200818108#0 241660955#0 241660955#4 241660955#6 241660955#7 241660955#10 241660955#11 -41910184" /></vehicle><vehicle id="209" type="pkw" depart="25450.800000000152"><route edges="319261593#12 319261593#15 8197886#0 -31864804" /></vehicle><vehicle id="210" type="pkw" depart="25452.000000000153"><route edges="319261593#12 319261593#15 319261593#16 4145590#0" /></vehicle><vehicle id="211" type="pkw" depart="25453.200000000154"><route edges="-4999334" /></vehicle><vehicle id="212" type="pkw" depart="25454.400000000154"><route edges="31864804 200818108#0 4999331#0" /></vehicle><vehicle id="213" type="pkw" depart="25455.600000000155"><route edges="41910186 -241660955#3 -200818108#1 -31864804" /></vehicle><vehicle id="214" type="pkw" depart="25456.800000000156"><route edges="31864804 200818108#0 241660955#0 241660955#4 -4999334" /></vehicle><vehicle id="215" type="pkw" depart="25458.000000000156"><route edges="41910184 241660955#13 241660955#14 241660955#17" /></vehicle><vehicle id="216" type="pkw" depart="25459.200000000157"><route edges="319261593#12 319261593#15 8197886#0 -31864804" /></vehicle><vehicle id="217" type="pkw" depart="25460.400000000158"><route edges="319261593#12 319261593#15 8197886#0 -31864804" /></vehicle><vehicle id="218" type="pkw" depart="25461.60000000016"><route edges="-5229966#3 319261593#15 319261593#16 4145590#0" /></vehicle><vehicle id="219" type="pkw" depart="25462.80000000016"><route edges="319261593#12 319261593#15 319261593#16 -200818108#1 -31864804" /></vehicle><vehicle id="220" type="pkw" depart="25464.00000000016"><route edges="31864804 200818108#0 4999331#0" /></vehicle><vehicle id="221" type="pkw" depart="25465.20000000016"><route edges="31864804 200818108#0 4145590#0" /></vehicle><vehicle id="222" type="pkw" depart="25466.40000000016"><route edges="41910186 -241660955#3 4145590#0" /></vehicle><vehicle id="223" type="pkw" depart="25467.600000000162"><route edges="-31800061#0 241660955#4 241660955#6 241660955#7 241660955#10 241660955#11 241660955#13 241660955#14 241660955#17" /></vehicle><vehicle id="224" type="pkw" depart="25468.800000000163"><route edges="241660955#4 -4999334" /></vehicle><vehicle id="225" type="pkw" depart="25470.000000000164"><route edges="-31800061#0 241660955#4 241660955#6 241660955#7 241660955#10 241660955