<routes xmlns:xsi="http://www.w3.org/2001/XMLSchema-instance" xsi:noNamespaceSchemaLocation="http://sumo.dlr.de/xsd/routes_file.xsd">
	<vType id="pkw" vClass="passenger" speedDev="0.1" length="4.3" minGap="1.5" />
<vehicle id="0" type="pkw" depart="25200"><route edges="31864804 200818108#0 241660955#0 241660955#4 241660955#6 241660955#7 41910185#0" /></vehicle><vehicle id="1" type="pkw" depart="25200.72"><route edges="319261593#12 319261593#15 319261593#16 4145590#0" /></vehicle><vehicle id="2" type="pkw" depart="25201.440000000002"><route edges="319261593#12 319261593#15 319261593#16 4145590#0" /></vehicle><vehicle id="3" type="pkw" depart="25202.160000000003"><route edges="31864804 200818108#0 4999331#0" /></vehicle><vehicle id="4" type="pkw" depart="25202.880000000005"><route edges="-241660955#17 -241660955#16 -241660955#13 -41910184" /></vehicle><vehicle id="5" type="pkw" depart="25203.600000000006"><route edges="41910184 241660955#13 4145589#0" /></vehicle><vehicle id="6" type="pkw" depart="25204.320000000007"><route edges="319261593#12" /></vehicle><vehicle id="7" type="pkw" depart="25205.040000000008"><route edges="241660957#0 -200818108#1 -31864804" /></vehicle><vehicle id="8" type="pkw" depart="25205.76000000001"><route edges="319261593#12 319261593#15 319261593#16 241660955#0 241660955#4 241660955#6 -241660955#6 -241660955#5 -241660955#3 241660955#0 241660955#4 241660955#6 -241660955#6 -241660955#5 -41910186" /></vehicle><vehicle id="9" type="pkw" depart="25206.48000000001"><route edges="41910184 241660955#13 241660955#14 241660955#17" /></vehicle><vehicle id="10" type="pkw" depart="25207.20000000001"><route edges="41910186 31800061#0" /></vehicle><vehicle id="11" type="pkw" depart="25207.920000000013"><route edges="241660955#4 -4999334" /></vehicle><vehicle id="12" type="pkw" depart="25208.640000000014"><route edges="31864804 200818108#0 4999331#0" /></vehicle><vehicle id="13" type="pkw" depart="25209.360000000015"><route edges="31864804 200818108#0 4999331#0" /></vehicle><vehicle id="14" type="pkw" depart="25210.080000000016"><route edges="41910184 241660955#13 -241660955#13 -241660955#12 -241660955#10 -241660955#9 -241660955#6 -241660955#5 -241660955#3 4145590#0" /></vehicle><vehicle id="15" type="pkw" depart="25210.800000000017"><route edges="-241660955#17 -241660955#16 -241660955#13 -241660955#12 -241660955#10 -241660955#9 -241660955#6 -241660955#5 -241660955#3 -200818108#1 -31864804" /></vehicle><vehicle id="16" type="pkw" depart="25211.52000000002"><route edges="31864804 200818108#0 241660955#0 241660955#4 241660955#6 241660955#7 241660955#10 241660955#11 241660955#13 241660955#14 241660955#17" /></vehicle><vehicle id="17" type="pkw" depart="25212.24000000002"><route edges="4999334 241660955#6" /></vehicle><vehicle id="18" type="pkw" depart="25212.96000000002"><route edges="241660957#0 4999331#0" /></vehicle><vehicle id="19" type="pkw" depart="25213.680000000022"><route edges="41910186 31800061#0" /></vehicle><vehicle id="20" type="pkw" depart="25214.400000000023"><route edges="41910186 -241660955#3 4145590#0" /></vehicle><vehicle id="21" type="pkw" depart="25215.120000000024"><route edges="-5229966#3" /></vehicle><vehicle id="22" type="pkw" depart="25215.840000000026"><route edges="-241660955#17 130160207#0" /></vehicle><vehicle id="23" type="pkw" depart="25216.560000000027"><route edges="41910184 241660955#13 241660955#14 241660955#17" /></vehicle><vehicle id="24" type="pkw" depart="25217.280000000028"><route edges="-5229966#3 319261593#15 319261593#16 241660955#0 241660955#4 241660955#6 241660955#7 241660955#10 241660955#11 -41910184" /></vehicle><vehicle id="25" type="pkw" depart="25218.00000000003"><route edges="-241660955#17 -241660955#16 -241660955#13 -241660955#12 -241660955#10 -241660955#9 -241660955#6 -241660955#5 -241660955#3 -200818108#1 -31864804" /></vehicle><vehicle id="26" type="pkw" depart="25218.72000000003"><route edges="-41910185#2 -4045329#5" /></vehicle><vehicle id="27" type="pkw" depart="25219.44000000003"><route edges="241660957#0 4999331#0" /></vehicle><vehicle id="28" type="pkw" depart="25220.160000000033"><route edges="241660957#0 4999331#0" /></vehicle><vehicle id="29" type="pkw" depart="25220.880000000034"><route edges="241660957#0 4999331#0" /></vehicle><vehicle id="30" type="pkw" depart="25221.600000000035"><route edges="4999334 -241660955#5 -241660955#3 -200818108#1 -31864804" /></vehicle><vehicle id="31" type="pkw" depart="25222.320000000036"><route edges="31864804 200818108#0 4145590#0" /></vehicle><vehicle id="32" type="pkw" depart="25223.040000000037"><route edges="31864804 200818108#0 241660955#0 -41910186" /></vehicle><vehicle id="33" type="pkw" depart="25223.76000000004"><route edges="319261593#12 319261593#15 319261593#16 241660955#0 241660955#4 241660955#6 241660955#7 241660955#10 241660955#11 241660955#13 241660955#14 241660955#17" /></vehicle><vehicle id="34" type="pkw" depart="25224.48000000004"><route edges="4999334 -241660955#5 -41910186" /></vehicle><vehicle id="35" type="pkw" depart="25225.20000000004"><route edges="241660957#0 4999331#0" /></vehicle><vehicle id="36" type="pkw" depart="25225.920000000042"><route edges="-130160207#0 -241660955#16 -241660955#13 241660955#13" /></vehicle><vehicle id="37" type="pkw" depart="25226.640000000043"><route edges="241660957#0 4999331#0" /></vehicle><vehicle id="38" type="pkw" depart="25227.360000000044"><route edges="-41910185#2 -4045329#5" /></vehicle><vehicle id="39" type="pkw" depart="25228.080000000045"><route edges="41910186 -241660955#3 -200818108#1 -31864804" /></vehicle><vehicle id="40" type="pkw" depart="25228.800000000047"><route edges="241660957#0 4999331#0" /></vehicle><vehicle id="41" type="pkw" depart="25229.520000000048"><route edges="-130160207#0 241660955#17 -241660955#17 241660955#17" /></vehicle><vehicle id="42" type="pkw" depart="25230.24000000005"><route edges="41910184 241660955#13 4145589#0" /></vehicle><vehicle id="43" type="pkw" depart="25230.96000000005"><route edges="4999334 -241660955#5 -241660955#3 4145590#0" /></vehicle><vehicle id="44" type="pkw" depart="25231.68000000005"><route edges="241660957#0 4999331#0" /></vehicle><vehicle id="45" type="pkw" depart="25232.400000000052"><route edges="-130160207#0 241660955#17" /></vehicle><vehicle id="46" type="pkw" depart="25233.120000000054"><route edges="319261593#12 319261593#15 319261593#16 -200818108#1 -31864804" /></vehicle><vehicle id="47" type="pkw" depart="25233.840000000055"><route edges="41910184 241660955#13 241660955#14 130160207#0 -130160207#0 241660955#17" /></vehicle><vehicle id="48" type="pkw" depart="25234.560000000056"><route edges="31864804 200818108#0 4999331#0" /></vehicle><vehicle id="49" type="pkw" depart="25235.280000000057"><route edges="4999334 -241660955#5 -241660955#3 -200818108#1 -31864804" /></vehicle><vehicle id="50" type="pkw" depart="25236.00000000006"><route edges="4999334 -241660955#5 -241660955#3 -200818108#1 -31864804" /></vehicle><vehicle id="51" type="pkw" depart="25236.72000000006"><route edges="241660957#0 4999331#0" /></vehicle><vehicle id="52" type="pkw" depart="25237.44000000006"><route edges="241660957#0 4999331#0" /></vehicle><vehicle id="53" type="pkw" depart="25238.16000000006"><route edges="-130160207#0 241660955#17" /></vehicle><vehicle id="54" type="pkw" depart="25238.880000000063"><route edges="-241660955#17 -241660955#16 -241660955#13 -241660955#12 -241660955#10 -241660955#9 -241660955#6 -241660955#5 -241660955#3 -200818108#1 -31864804" /></vehicle><vehicle id="55" type="pkw" depart="25239.600000000064"><route edges="41910184 241660955#13 241660955#14 241660955#17" /></vehicle><vehicle id="56" type="pkw" depart="25240.320000000065"><route edges="-241660955#17 -241660955#16 -241660955#13 -241660955#12 -241660955#10 -241660955#9 -241660955#6 -241660955#5 -241660955#3 -200818108#1 -31864804" /></vehicle><vehicle id="57" type="pkw" depart="25241.040000000066"><route edges="-241660955#17 -241660955#16 -241660955#13 -241660955#12 -241660955#10 -241660955#9 -241660955#6 -241660955#5 -241660955#3 -200818108#1 -31864804" /></vehicle><vehicle id="58" type="pkw" depart="25241.760000000068"><route edges="41910184 241660955#13 241660955#14 241660955#17" /></vehicle><vehicle id="59" type="pkw" depart="25242.48000000007"><route edges="-31800061#0 -41910186" /></vehicle><vehicle id="60" type="pkw" depart="25243.20000000007"><route edges="31864804 200818108#0 4145590#0" /></vehicle><vehicle id="61" type="pkw" depart="25243.92000000007"><route edges="319261593#12 319261593#15 319261593#16 4145590#0" /></vehicle><vehicle id="62" type="pkw" depart="25244.640000000072"><route edges="319261593#12 319261593#15 319261593#16 -200818108#1 -31864804" /></vehicle><vehicle id="63" type="pkw" depart="25245.360000000073"><route edges="241660957#0 4999331#0" /></vehicle><vehicle id="64" type="pkw" depart="25246.080000000075"><route edges="-130160207#0 -241660955#16 -241660955#13 -241660955#12 -241660955#10 41910185#0" /></vehicle><vehicle id="65" type="pkw" depart="25246.800000000076"><route edges="31864804 200818108#0 241660955#0 241660955#4 -4999334" /></vehicle><vehicle id="66" type="pkw" depart="25247.520000000077"><route edges="31864804 200818108#0 4999331#0" /></vehicle><vehicle id="67" type="pkw" depart="25248.240000000078"><route edges="31864804 200818108#0 241660955#0 241660955#4 -4999334" /></vehicle><vehicle id="68" type="pkw" depart="25248.96000000008"><route edges="31864804 200818108#0 241660955#0 241660955#4 241660955#6 241660955#7 41910185#0" /></vehicle><vehicle id="69" type="pkw" depart="25249.68000000008"><route edges="-41910185#2 -4045329#5" /></vehicle><vehicle id="70" type="pkw" depart="25250.40000000008"><route edges="-130160207#0 241660955#17" /></vehicle><vehicle id="71" type="pkw" depart="25251.120000000083"><route edges="31864804 200818108#0 241660955#0 241660955#4 241660955#6 241660955#7 241660955#10 241660955#11 241660955#13 241660955#14 241660955#17" /></vehicle><vehicle id="72" type="pkw" depart="25251.840000000084"><route edges="-5229966#3 319261593#15 319261593#16 4145590#0" /></vehicle><vehicle id="73" type="pkw" depart="25252.560000000085"><route edges="241660957#0 4999331#0" /></vehicle><vehicle id="74" type="pkw" depart="25253.280000000086"><route edges="31864804 200818108#0 4999331#0" /></vehicle><vehicle id="75" type="pkw" depart="25254.000000000087"><route edges="31864804 200818108#0 4999331#0" /></vehicle><vehicle id="76" type="pkw" depart="25254.72000000009"><route edges="41910184 241660955#13 241660955#14 241660955#17" /></vehicle><vehicle id="77" type="pkw" depart="25255.44000000009"><route edges="4045329#5 41910185#0" /></vehicle><vehicle id="78" type="pkw" depart="25256.16000000009"><route edges="4045330 241660955#11 241660955#13 4145589#0" /></vehicle><vehicle id="79" type="pkw" depart="25256.880000000092"><route edges="241660957#0 -200818108#1 -31864804" /></vehicle><vehicle id="80" type="pkw" depart="25257.600000000093"><route edges="-31800061#0 241660955#4 241660955#6 241660955#7 241660955#10 -4045330" /></vehicle><vehicle id="81" type="pkw" depart="25258.320000000094"><route edges="31864804 200818108#0 4999331#0" /></vehicle><vehicle id="82" type="pkw" depart="25259.040000000095"><route edges="-130160207#0 -241660955#16 -241660955#13 -41910184" /></vehicle><vehicle id="83" type="pkw" depart="25259.760000000097"><route edges="4999334 241660955#6 4045332#0" /></vehicle><vehicle id="84" type="pkw" depart="25260.480000000098"><route edges="41910184 241660955#13 241660955#14 130160207#0" /></vehicle><vehicle id="85" type="pkw" depart="25261.2000000001"><route edges="241660957#0 4999331#0" /></vehicle><vehicle id="86" type="pkw" depart="25261.9200000001"><route edges="241660957#0 4999331#0" /></vehicle><vehicle id="87" type="pkw" depart="25262.6400000001"><route edges="4045329#5 41910185#0" /></vehicle><vehicle id="88" type="pkw" depart="25263.360000000102"><route edges="241660957#0 4999331#0" /></vehicle><vehicle id="89" type="pkw" depart="25264.080000000104"><route edges="31864804 200818108#0 4999331#0" /></vehicle><vehicle id="90" type="pkw" depart="25264.800000000105"><route edges="319261593#12 319261593#15 319261593#16 4145590#0" /></vehicle><vehicle id="91" type="pkw" depart="25265.520000000106"><route edges="241660957#0 4999331#0" /></vehicle><vehicle id="92" type="pkw" depart="25266.240000000107"><route edges="319261593#12 319261593#15 319261593#16 4145590#0" /></vehicle><vehicle id="93" type="pkw" depart="25266.96000000011"><route edges="-5229966#3 319261593#15 319261593#16 241660955#0 241660955#4 241660955#6 241660955#7 241660955#10 241660955#11 241660955#13 241660955#14 241660955#17" /></vehicle><vehicle id="94" type="pkw" depart="25267.68000000011"><route edges="-31800061#0 241660955#4 241660955#6 241660955#7 -241660955#9 -241660955#6 -241660955#5 -41910186" /></vehicle><vehicle id="95" type="pkw" depart="25268.40000000011"><route edges="241660957#0 4999331#0" /></vehicle><vehicle id="96" type="pkw" depart="25269.12000000011"><route edges="241660957#0 241660955#0 241660955#4 241660955#6 -241660955#6" /></vehicle><vehicle id="97" type="pkw" depart="25269.840000000113"><route edges="-5229966#3 319261593#15 319261593#16 4145590#0" /></vehicle><vehicle id="98" type="pkw" depart="25270.560000000114"><route edges="-31800061#0 -41910186" /></vehicle><vehicle id="99" type="pkw" depart="25271.280000000115"><route edges="31864804 200818108#0 241660955#0 241660955#4 241660955#6 241660955#7 241660955#10 241660955#11 -41910184" /></vehicle><vehicle id="100" type="pkw" depart="25272.000000000116"><route edges="-5229966#3 319261593#15 319261593#16 241660955#0 241660955#4 241660955#6 241660955#7 241660955#10 241660955#11 241660955#13 241660955#14 241660955#17" /></vehicle><vehicle id="101" type="pkw" depart="25272.720000000118"><route edges="31864804 200818108#0 4999331#0" /></vehicle><vehicle id="102" type="pkw" depart="25273.44000000012"><route edges="-241660955#17 -241660955#16 -241660955#13 -241660955#12 -241660955#10 -241660955#9 -241660955#6 -241660955#5 -241660955#3 -200818108#1 -31864804" /></vehicle><vehicle id="103" type="pkw" depart="25274.16000000012"><route edges="4999334 -241660955#5 -241660955#3 -200818108#1 -31864804" /></vehicle><vehicle id="104" type="pkw" depart="25274.88000000012"><route edges="-241660955#17 -241660955#16 -241660955#13 -241660955#12 -241660955#10 -241660955#9 -241660955#6 -241660955#5 -241660955#3 -200818108#1 -31864804" /></vehicle><vehicle id="105" type="pkw" depart="25275.600000000122"><route edges="-5229966#3 319261593#15 319261593#16 4145590#0" /></vehicle><vehicle id="106" type="pkw" depart="25276.320000000123"><route edges="4045329#5 -241660955#9 -241660955#6 -241660955#5 -241660955#3 4145590#0" /></vehicle><vehicle id="107" type="pkw" depart="25277.040000000125"><route edges="241660957#0 -200818108#1 -31864804" /></vehicle><vehicle id="108" type="pkw" depart="25277.760000000126"><route edges="319261593#12 319261593#15 319261593#16 4145590#0" /></vehicle><vehicle id="109" type="pkw" depart="25278.480000000127"><route edges="-241660955#17 -241660955#16 -241660955#13 -241660955#12 -241660955#10 -241660955#9 -241660955#6 -241660955#5 -241660955#3 4999331#0" /></vehicle><vehicle id="110" type="pkw" depart="25279.200000000128"><route edges="319261593#12 319261593#15 319261593#16 -200818108#1 -31864804" /></vehicle><vehicle id="111" type="pkw" depart="25279.92000000013"><route edges="31864804 200818108#0 4999331#0" /></vehicle><vehicle id="112" type="pkw" depart="25280.64000000013"><route edges="31864804 200818108#0 4145590#0" /></vehicle><vehicle id="113" type="pkw" depart="25281.36000000013"><route edges="-130160207#0 241660955#17" /></vehicle><vehicle id="114" type="pkw" depart="25282.080000000133"><route edges="-241660955#17 -241660955#16 -241660955#13 -41910184" /></vehicle><vehicle id="115" type="pkw" depart="25282.800000000134"><route edges="31864804 200818108#0 4145590#0" /></vehicle><vehicle id="116" type="pkw" depart="25283.520000000135"><route edges="-5229966#3 319261593#15 319261593#16 4145590#0" /></vehicle><vehicle id="117" type="pkw" depart="25284.240000000136"><route edges="4045329#5 41910185#0" /></vehicle><vehicle id="118" type="pkw" depart="25284.960000000137"><route edges="31864804 200818108#0 4145590#0" /></vehicle><vehicle id="119" type="pkw" depart="25285.68000000014"><route edges="319261593#12" /></vehicle><vehicle id="120" type="pkw" depart="25286.40000000014"><route edges="31864804 200818108#0 4145590#0" /></vehicle><vehicle id="121" type="pkw" depart="25287.12000000014"><route edges="31864804 200818108#0 241660955#0 241660955#4 241660955#6 241660955#7 241660955#10 241660955#11 241660955#13 241660955#14 241660955#17" /></vehicle><vehicle id="122" type="pkw" depart="25287.840000000142"><route edges="41910186 -241660955#3 -200818108#1 -31864804" /></vehicle><vehicle id="123" type="pkw" depart="25288.560000000143"><route edges="319261593#12 319261593#15 319261593#16 241660955#0 241660955#4 241660955#6 241660955#7 241660955#10 241660955#11 241660955#13 241660955#14 241660955#17" /></vehicle><vehicle id="124" type="pkw" depart="25289.280000000144"><route edges="130160207#0 -130160207#0 241660955#17 -241660955#17 130160207#0 -130160207#0 241660955#17" /></vehicle><vehicle id="125" type="pkw" depart="25290.000000000146"><route edges="4045329#5 41910185#0" /></vehicle><vehicle id="126" type="pkw" depart="25290.720000000147"><route edges="41910184 241660955#13 241660955#14 241660955#17" /></vehicle><vehicle id="127" type="pkw" depart="25291.440000000148"><route edges="-31800061#0 -41910186" /></vehicle><vehicle id="128" type="pkw" depart="25292.16000000015"><route edges="241660957#0 4999331#0" /></vehicle><vehicle id="129" type="pkw" depart="25292.88000000015"><route edges="241660957#0 4999331#0" /></vehicle><vehicle id="130" type="pkw" depart="25293.60000000015"><route edges="-31800061#0 -241660955#3" /></vehicle><vehicle id="131" type="pkw" depart="25294.320000000153"><route edges="41910186 -241660955#3 4999331#0" /></vehicle><vehicle id="132" type="pkw" depart="25295.040000000154"><route edges="31864804 200818108#0 4999331#0" /></vehicle><vehicle id="133" type="pkw" depart="25295.760000000155"><route edges="241660957#0 4999331#0" /></vehicle><vehicle id="134" type="pkw" depart="25296.480000000156"><route edges="-130160207#0 241660955#17" /></vehicle><vehicle id="135" type="pkw" depart="25297.200000000157"><route edges="241660957#0 4999331#0" /></vehicle><vehicle id="136" type="pkw" depart="25297.92000000016"><route edges="4045329#5 -241660955#9 -241660955#6 -241660955#5 31800061#0" /></vehicle><vehicle id="137" type="pkw" depart="25298.64000000016"><route edges="-5229966#3 319261593#15 319261593#16 4145590#0" /></vehicle><vehicle id="138" type="pkw" depart="25299.36000000016"><route edges="241660957#0 4999331#0" /></vehicle><vehicle id="139" type="pkw" depart="25300.08000000016"><route edges="319261593#12 319261593#15 319261593#16 4145590#0" /></vehicle><vehicle id="140" type="pkw" depart="25300.800000000163"><route edges="-41910185#2 -4045329#5" /></vehicle><vehicle id="141" type="pkw" depart="25301.520000000164"><route edges="4045329#5 -241660955#9 -241660955#6 -241660955#5 31800061#0" /></vehicle><vehicle id="142" type="pkw" depart="25302.240000000165"><route edges="241660957#0 4999331#0" /></vehicle><vehicle id="143" type="pkw" depart="25302.960000000166"><route edges="31864804 200818108#0 241660955#0 241660955#4 241660955#6 241660955#7 241660955#10 241660955#11 241660955#13 241660955#14 130160207#0" /></vehicle><vehicle id="144" type="pkw" depart="25303.680000000168"><route edges="-5229966#3 319261593#15 319261593#16 241660955#0 241660955#4 -4999334" /></vehicle><vehicle id="145" type="pkw" depart="25304.40000000017"><route edges="-5229966#3 319261593#15 319261593#16 241660955#0 241660955#4 241660955#6 241660955#7 241660955#10 241660955#11 241660955#13 241660955#14 241660955#17" /></vehicle><vehicle id="146" type="pkw" depart="25305.12000000017"><route edges="31864804 200818108#0 4999331#0" /></vehicle><vehicle id="147" type="pkw" depart="25305.84000000017"><route edges="31864804 200818108#0 241660955#0 241660955#4 241660955#6 241660955#7 241660955#10 241660955#11 -41910184" /></vehicle><vehicle id="148" type="pkw" depart="25306.560000000172"><route edges="-5229966#3 319261593#15 8197886#0 200818108#0 4145590#0" /></vehicle><vehicle id="149" type="pkw" depart="25307.280000000173"><route edges="-4045329#5 4045329#5 241660955#10 241660955#11 241660955#13 241660955#14 241660955#17" /></vehicle><vehicle id="150" type="pkw" depart="25308.000000000175"><route edges="31864804 200818108#0 241660955#0 241660955#4 241660955#6 241660955#7 241660955#10 241660955#11 -41910184" /></vehicle><vehicle id="151" type="pkw" depart="25308.720000000176"><route edges="319261593#12 319261593#15 319261593#16 241660955#0 241660955#4 -4999334" /></vehicle><vehicle id="152" type="pkw" depart="25309.440000000177"><route edges="4045330 -241660955#10 -4045329#5" /></vehicle><vehicle id="153" type="pkw" depart="25310.160000000178"><route edges="41910186 31800061#0" /></vehicle><vehicle id="154" type="pkw" depart="25310.88000000018"><route edges="4999334 -241660955#5 -241660955#3 4145590#0" /></vehicle><vehicle id="155" type="pkw" depart="25311.60000000018"><route edges="319261593#12 319261593#15 319261593#16 4145590#0" /></vehicle><vehicle id="156" type="pkw" depart="25312.32000000018"><route edges="4045329#5 -241660955#9 -241660955#6 -241660955#5 31800061#0" /></vehicle><vehicle id="157" type="pkw" depart="25313.040000000183"><route edges="241660957#0 4999331#0" /></vehicle><vehicle id="158" type="pkw" depart="25313.760000000184"><route edges="31864804 -31864804" /></vehicle><vehicle id="159" type="pkw" depart="25314.480000000185"><route edges="319261593#12 319261593#15 319261593#16 4145590#0" /></vehicle><vehicle id="160" type="pkw" depart="25315.200000000186"><route edges="-241660955#17 -241660955#16 -241660955#13 -241660955#12 -241660955#10 -241660955#9 -241660955#6 -241660955#5 -241660955#3 -200818108#1 -31864804" /></vehicle><vehicle id="161" type="pkw" depart="25315.920000000187"><route edges="4999334 -241660955#5 -241660955#3 4145590#0" /></vehicle><vehicle id="162" type="pkw" depart="25316.64000000019"><route edges="319261593#12 319261593#15 319261593#16 241660955#0 241660955#4 -4999334" /></vehicle><vehicle id="163" type="pkw" depart="25317.36000000019"><route edges="241660957#0 -200818108#1 -31864804" /></vehicle><vehicle id="164" type="pkw" depart="25318.08000000019"><route edges="31864804 200818108#0 4145590#0" /></vehicle><vehicle id="165" type="pkw" depart="25318.800000000192"><route edges="319261593#12 319261593#15 319261593#16 -200818108#1 -31864804" /></vehicle><vehicle id="166" type="pkw" depart="25319.520000000193"><route edges="319261593#12 319261593#15 319261593#16 4145590#0" /></vehicle><vehicle id="167" type="pkw" depart="25320.240000000194"><route edges="319261593#12 319261593#15 8197886#0 200818108#0 241660955#0 -241660955#3" /></vehicle><vehicle id="168" type="pkw" depart="25320.960000000196"><route edges="-241660955#17 -241660955#16 -241660955#13 -41910184" /></vehicle><vehicle id="169" type="pkw" depart="25321.680000000197"><route edges="241660957#0 4999331#0" /></vehicle><vehicle id="170" type="pkw" depart="25322.400000000198"><route edges="-4999334" /></vehicle><vehicle id="171" type="pkw" depart="25323.1200000002"><route edges="4999334 -241660955#5 -241660955#3 -200818108#1 -31864804" /></vehicle><vehicle id="172" type="pkw" depart="25323.8400000002"><route edges="319261593#12 319261593#15 319261593#16 -200818108#1 -31864804" /></vehicle><vehicle id="173" type="pkw" depart="25324.5600000002"><route edges="241660957#0 4999331#0" /></vehicle><vehicle id="174" type="pkw" depart="25325.280000000203"><route edges="241660955#13 241660955#14 241660955#17" /></vehicle><vehicle id="175" type="pkw" depart="25326.000000000204"><route edges="-4999334" /></vehicle><vehicle id="176" type="pkw" depart="25326.720000000205"><route edges="-31800061#0 241660955#4 -4999334" /></vehicle><vehicle id="177" type="pkw" depart="25327.440000000206"><route edges="31864804 200818108#0 241660955#0 241660955#4 241660955#6 241660955#7 241660955#10 241660955#11 241660955#13 241660955#14 241660955#17" /></vehicle><vehicle id="178" type="pkw" depart="25328.160000000207"><route edges="-41910185#2 -241660955#9 -241660955#6 -241660955#5 -241660955#3 -200818108#1 -31864804" /></vehicle><vehicle id="179" type="pkw" depart="25328.88000000021"><route edges="241660957#0 4999331#0" /></vehicle><vehicle id="180" type="pkw" depart="25329.60000000021"><route edges="241660957#0 4999331#0" /></vehicle><vehicle id="181" type="pkw" depart="25330.32000000021"><route edges="4045329#5 -241660955#9 -241660955#6 -241660955#5 31800061#0" /></vehicle><vehicle id="182" type="pkw" depart="25331.040000000212"><route edges="31864804 200818108#0 4145590#0" /></vehicle><vehicle id="183" type="pkw" depart="25331.760000000213"><route edges="-31800061#0 241660955#4 241660955#6 241660955#7 241660955#10 241660955#11 241660955#13 4145589#0" /></vehicle><vehicle id="184" type="pkw" depart="25332.480000000214"><route edges="41910186 -241660955#3 4145590#0" /></vehicle><vehicle id="185" type="pkw" depart="25333.200000000215"><route edges="319261593#12 319261593#15 319261593#16 -200818108#1 -31864804" /></vehicle><vehicle id="186" type="pkw" depart="25333.920000000217"><route edges="241660957#0 241660955#0 -41910186" /></vehicle><vehicle id="187" type="pkw" depart="25334.640000000218"><route edges="31864804 200818108#0 4145590#0" /></vehicle><vehicle id="188" type="pkw" depart="25335.36000000022"><route edges="31864804 200818108#0 241660955#0 241660955#4 241660955#6 241660955#7 241660955#10 241660955#11 -41910184" /></vehicle><vehicle id="189" type="pkw" depart="25336.08000000022"><route edges="4045330 241660955#11 241660955#13 241660955#14 130160207#0 -130160207#0 241660955#17" /></vehicle><vehicle id="190" type="pkw" depart="25336.80000000022"><route edges="41910184 241660955#13 4145589#0" /></vehicle><vehicle id="191" type="pkw" depart="25337.520000000222"><route edges="-241660955#10 241660955#10 241660955#11 241660955#13 241660955#14 241660955#17" /></vehicle><vehicle id="192" type="pkw" depart="25338.240000000224"><route edges="-5229966#3 319261593#15 319261593#16 241660955#0 241660955#4 -4999334" /></vehicle><vehicle id="193" type="pkw" depart="25338.960000000225"><route edges="241660957#0 241660955#0 -41910186" /></vehicle><vehicle id="194" type="pkw" depart="25339.680000000226"><route edges="4045329#5 41910185#0" /></vehicle><vehicle id="195" type="pkw" depart="25340.400000000227"><route edges="31864804 200818108#0 4145590#0" /></vehicle><vehicle id="196" type="pkw" depart="25341.120000000228"><route edges="31864804 200818108#0 4145590#0" /></vehicle><vehicle id="197" type="pkw" depart="25341.84000000023"><route edges="41910184 241660955#13 241660955#14 130160207#0" /></vehicle><vehicle id="198" type="pkw" depart="25342.56000000023"><route edges="-31800061#0 241660955#4 -4999334" /></vehicle><vehicle id="199" type="pkw" depart="25343.28000000023"><route edges="-130160207#0 241660955#17" /></vehicle><vehicle id="200" type="pkw" depart="25344.000000000233"><route edges="319261593#12 319261593#15 319261593#16 4145590#0" /></vehicle><vehicle id="201" type="pkw" depart="25344.720000000234"><route edges="4045329#5 41910185#0" /></vehicle><vehicle id="202" type="pkw" depart="25345.440000000235"><route edges="241660957#0 4999331#0" /></vehicle><vehicle id="203" type="pkw" depart="25346.160000000236"><route edges="41910186 31800061#0" /></vehicle><vehicle id="204" type="pkw" depart="25346.880000000237"><route edges="31864804 200818108#0 4999331#0" /></vehicle><vehicle id="205" type="pkw" depart="25347.60000000024"><route edges="31864804 200818108#0 241660955#0 241660955#4 241660955#6 241660955#7 241660955#10 241660955#11 241660955#13 241660955#14 -241660955#16 -241660955#13 -41910184" /></vehicle><vehicle id="206" type="pkw" depart="25348.32000000024"><route edges="241660957#0 4999331#0" /></vehicle><vehicle id="207" type="pkw" depart="25349.04000000024"><route edges="241660955#13 241660955#14 241660955#17" /></vehicle><vehicle id="208" type="pkw" depart="25349.760000000242"><route edges="-31800061#0 -41910186" /></vehicle><vehicle id="209" type="pkw" depart="25350.480000000243"><route edges="31864804 200818108#0 241660955#0 241660955#4 241660955#6 241660955#7 241660955#10 241660955#11 -41910184" /></vehicle><vehicle id="210" type="pkw" depart="25351.200000000244"><route edges="-31800061#0 -41910186" /></vehicle><vehicle id="211" type="pkw" depart="25351.920000000246"><route edges="-130160207#0 -241660955#16 -241660955#13 -41910184" /></vehicle><vehicle id="212" type="pkw" depart="25352.640000000247"><route edges="-5229966#3 319261593#15 319261593#16 241660955#0 241660955#4 241660955#6 241660955#7 241660955#10 241660955#11 -41910184" /></vehicle><vehicle id="213" type="pkw" depart="25353.360000000248"><route edges="-41910185#2 -4045329#5" /></vehicle><vehicle id="214" type="pkw" depart="25354.08000000025"><route edges="4045329#5 241660955#10 241660955#11 241660955#13 241660955#14 241660955#17" /></vehicle><vehicle id="215" type="pkw" depart="25354.80000000025"><route edges="31864804 200818108#0 4145590#0" /></vehicle><vehicle id="216" type="pkw" depart="25355.52000000025"><route edges="8197886#0 200818108#0 4145590#0" /></vehicle><vehicle id="217" type="pkw" depart="25356.240000000253"><route edges="130160207#0" /></vehicle><vehicle id="218" type="pkw" depart="25356.960000000254"><route edges="241660957#0 4999331#0" /></vehicle><vehicle id="219" type="pkw" depart="25357.680000000255"><route edges="41910186 -241660955#3 4145590#0" /></vehicle><vehicle id="220" type="pkw" depart="25358.400000000256"><route edges="8197886#0 200818108#0 4145590#0" /></vehicle><vehicle id="221" type="pkw" depart="25