<routes xmlns:xsi="http://www.w3.org/2001/XMLSchema-instance" xsi:noNamespaceSchemaLocation="http://sumo.dlr.de/xsd/routes_file.xsd">
	<vType id="pkw" vClass="passenger" speedDev="0.1" length="4.3" minGap="1.5" />
<trip id="0" type="pkw" depart="25200" from="-23283579#0" to="-22917421#4" /><trip id="1" type="pkw" depart="25203.6" from="-42925825#2" to="-186623965#14" /><trip id="2" type="pkw" depart="25207.199999999997" from="-186623965#18" to="42925825#0" /><trip id="3" type="pkw" depart="25210.799999999996" from="-42925825#2" to="-186623965#14" /><trip id="4" type="pkw" depart="25214.399999999994" from="-28675510#11" to="297047309#0" /><trip id="5" type="pkw" depart="25217.999999999993" from="22917421#3" to="186623965#17" /><trip id="6" type="pkw" depart="25221.59999999999" from="-23283579#1" to="133081987#3" /><trip id="7" type="pkw" depart="25225.19999999999" from="-28675510#11" to="-186623965#14" /><trip id="8" type="pkw" depart="25228.79999999999" from="-23648008#1" to="-186623965#14" /><trip id="9" type="pkw" depart="25232.399999999987" from="23283470#0" to="28675510#7" /><trip id="10" type="pkw" depart="25235.999999999985" from="-186623965#18" to="-186623965#14" /><trip id="11" type="pkw" depart="25239.599999999984" from="22959550#3" to="28675510#7" /><trip id="12" type="pkw" depart="25243.199999999983" from="22917421#3" to="28675493" /><trip id="13" type="pkw" depart="25246.79999999998" from="-186623965#18" to="-186623965#14" /><trip id="14" type="pkw" depart="25250.39999999998" from="-42925825#2" to="-186623965#14" /><trip id="15" type="pkw" depart="25253.999999999978" from="160807420" to="-186623965#14" /><trip id="16" type="pkw" depart="25257.599999999977" from="-23283579#1" to="23840972" /><trip id="17" type="pkw" depart="25261.199999999975" from="-186623965#18" to="-186623965#14" /><trip id="18" type="pkw" depart="25264.799999999974" from="-42925825#2" to="-186623965#14" /><trip id="19" type="pkw" depart="25268.399999999972" from="160807420" to="23283436" /><trip id="20" type="pkw" depart="25271.99999999997" from="-186623965#18" to="-186623965#14" /><trip id="21" type="pkw" depart="25275.59999999997" from="-23283579#1" to="28675510#7" /><trip id="22" type="pkw" depart="25279.199999999968" from="22917421#3" to="186623965#17" /><trip id="23" type="pkw" depart="25282.799999999967" from="22917421#3" to="-186623965#14" /><trip id="24" type="pkw" depart="25286.399999999965" from="-42925825#2" to="23283579#1" /><trip id="25" type="pkw" depart="25289.999999999964" from="23283580#0" to="23286179#2" /><trip id="26" type="pkw" depart="25293.599999999962" from="-28675510#11" to="23285888#0" /><trip id="27" type="pkw" depart="25297.19999999996" from="-186623965#18" to="-186623965#14" /><trip id="28" type="pkw" depart="25300.79999999996" from="-23283579#1" to="4936412" /><trip id="29" type="pkw" depart="25304.399999999958" from="23840712#1" to="28675510#7" /><trip id="30" type="pkw" depart="25307.999999999956" from="-42925825#2" to="23648008#0" /><trip id="31" type="pkw" depart="25311.599999999955" from="-353069169#0" to="-186623965#14" /><trip id="32" type="pkw" depart="25315.199999999953" from="23840888#1" to="23283579#1" /><trip id="33" type="pkw" depart="25318.799999999952" from="-42925825#2" to="-186623965#14" /><trip id="34" type="pkw" depart="25322.39999999995" from="-42925825#2" to="-186623965#14" /><trip id="35" type="pkw" depart="25325.99999999995" from="132042183" to="23283436" /><trip id="36" type="pkw" depart="25329.599999999948" from="-42925825#2" to="-186623965#14" /><trip id="37" type="pkw" depart="25333.199999999946" from="23283579#1" to="-186623965#14" /><trip id="38" type="pkw" depart="25336.799999999945" from="-42925825#2" to="8716827#0" /><trip id="39" type="pkw" depart="25340.399999999943" from="23840713#2" to="42925825#0" /><trip id="40" type="pkw" depart="25343.99999999994" from="-23283579#1" to="25166682#0" /><trip id="41" type="pkw" depart="25347.59999999994" from="-42925825#2" to="-186623965#14" /><trip id="42" type="pkw" depart="25351.19999999994" from="-4936412" to="8716827#0" /><trip id="43" type="pkw" depart="25354.799999999937" from="22959550#3" to="-22917421#4" /><trip id="44" type="pkw" depart="25358.399999999936" from="186623965#9" to="186623965#17" /><trip id="45" type="pkw" depart="25361.999999999935" from="-42925825#2" to="-186623965#14" /><trip id="46" type="pkw" depart="25365.599999999933" from="160807420" to="23840972" /><trip id="47" type="pkw" depart="25369.19999999993" from="-23283579#1" to="-22917421#4" /><trip id="48" type="pkw" depart="25372.79999999993" from="22959550#3" to="-186623965#14" /><trip id="49" type="pkw" depart="25376.39999999993" from="22917421#3" to="28675510#7" /><trip id="50" type="pkw" depart="25379.999999999927" from="24675285" to="28675510#7" /><trip id="51" type="pkw" depart="25383.599999999926" from="-186623965#16" to="42925825#0" /><trip id="52" type="pkw" depart="25387.199999999924" from="186623965#9" to="25166682#0" /><trip id="53" type="pkw" depart="25390.799999999923" from="28691861" to="-186623965#14" /><trip id="54" type="pkw" depart="25394.39999999992" from="-23283472#2" to="23283436" /><trip id="55" type="pkw" depart="25397.99999999992" from="-23283579#1" to="23840972" /><trip id="56" type="pkw" depart="25401.59999999992" from="-186623965#18" to="-186623965#14" /><trip id="57" type="pkw" depart="25405.199999999917" from="25166682#0" to="28675510#7" /><trip id="58" type="pkw" depart="25408.799999999916" from="155600123#0" to="23286179#2" /><trip id="59" type="pkw" depart="25412.399999999914" from="-23283579#1" to="323450710#0" /><trip id="60" type="pkw" depart="25415.999999999913" from="-186623965#18" to="-186623965#14" /><trip id="61" type="pkw" depart="25419.59999999991" from="-28675510#11" to="8716827#0" /><trip id="62" type="pkw" depart="25423.19999999991" from="-4936412" to="323450710#0" /><trip id="63" type="pkw" depart="25426.79999999991" from="-186623965#18" to="42925825#0" /><trip id="64" type="pkw" depart="25430.399999999907" from="-42925825#2" to="-186623965#14" /><trip id="65" type="pkw" depart="25433.999999999905" from="23286180" to="23286179#2" /><trip id="66" type="pkw" depart="25437.599999999904" from="-23283579#1" to="-297047309#0" /><trip id="67" type="pkw" depart="25441.199999999903" from="-297047309#0" to="297047309#0" /><trip id="68" type="pkw" depart="25444.7999999999" from="-323450710#0" to="42925825#0" /><trip id="69" type="pkw" depart="25448.3999999999" from="-42925825#2" to="-186623965#14" /><trip id="70" type="pkw" depart="25451.999999999898" from="-42925825#2" to="23840971" /><trip id="71" type="pkw" depart="25455.599999999897" from="-186623965#18" to="-186623965#14" /><trip id="72" type="pkw" depart="25459.199999999895" from="186623965#9" to="-290365598#1" /><trip id="73" type="pkw" depart="25462.799999999894" from="-28675510#11" to="-186623965#14" /><trip id="74" type="pkw" depart="25466.399999999892" from="186623965#9" to="42925825#0" /><trip id="75" type="pkw" depart="25469.99999999989" from="-23283579#1" to="23286180" /><trip id="76" type="pkw" depart="25473.59999999989" from="22917421#3" to="186623965#17" /><trip id="77" type="pkw" depart="25477.199999999888" from="-23283579#1" to="8716827#0" /><trip id="78" type="pkw" depart="25480.799999999886" from="-42925825#2" to="-186623965#14" /><trip id="79" type="pkw" depart="25484.399999999885" from="186623965#9" to="186623965#17" /><trip id="80" type="pkw" depart="25487.999999999884" from="-28675510#11" to="-186623965#14" /><trip id="81" type="pkw" depart="25491.599999999882" from="186623965#9" to="28675510#7" /><trip id="82" type="pkw" depart="25495.19999999988" from="-23283579#0" to="28675510#7" /><trip id="83" type="pkw" depart="25498.79999999988" from="-42925825#2" to="297047309#0" /><trip id="84" type="pkw" depart="25502.399999999878" from="-42925825#2" to="-186623965#14" /><trip id="85" type="pkw" depart="25505.999999999876" from="23840712#0" to="23283579#1" /><trip id="86" type="pkw" depart="25509.599999999875" from="-23283579#1" to="-23840935" /><trip id="87" type="pkw" depart="25513.199999999873" from="23283474" to="22959552#0" /><trip id="88" type="pkw" depart="25516.799999999872" from="-4936412" to="8716827#0" /><trip id="89" type="pkw" depart="25520.39999999987" from="-28675510#11" to="42925825#0" /><trip id="90" type="pkw" depart="25523.99999999987" from="-297047309#0" to="-28675493" /><trip id="91" type="pkw" depart="25527.599999999868" from="186623965#9" to="-297047308" /><trip id="92" type="pkw" depart="25531.199999999866" from="-28675510#11" to="-186623965#14" /><trip id="93" type="pkw" depart="25534.799999999865" from="-186623965#18" to="42925825#0" /><trip id="94" type="pkw" depart="25538.399999999863" from="-28675510#11" to="23686088#1" /><trip id="95" type="pkw" depart="25541.99999999986" from="-186623965#18" to="42925825#0" /><trip id="96" type="pkw" depart="25545.59999999986" from="-23283579#1" to="8716827#0" /><trip id="97" type="pkw" depart="25549.19999999986" from="-297047309#0" to="28675510#7" /><trip id="98" type="pkw" depart="25552.799999999857" from="-42925825#2" to="-186623965#14" /><trip id="99" type="pkw" depart="25556.399999999856" from="22959552#2" to="186623965#17" /><trip id="100" type="pkw" depart="25559.999999999854" from="-28675510#11" to="297047309#0" /><trip id="101" type="pkw" depart="25563.599999999853" from="-42925825#2" to="-186623965#14" /><trip id="102" type="pkw" depart="25567.19999999985" from="-23283579#1" to="28675510#7" /><trip id="103" type="pkw" depart="25570.79999999985" from="23840712#1" to="-186623965#14" /><trip id="104" type="pkw" depart="25574.39999999985" from="160807420" to="133081987#0" /><trip id="105" type="pkw" depart="25577.999999999847" from="297047309#0" to="297047309#0" /><trip id="106" type="pkw" depart="25581.599999999846" from="8716807#1" to="-186623965#14" /><trip id="107" type="pkw" depart="25585.199999999844" from="-186623965#18" to="23840972" /><trip id="108" type="pkw" depart="25588.799999999843" from="-297047309#0" to="28691861" /><trip id="109" type="pkw" depart="25592.39999999984" from="-23283579#1" to="-297047310#2" /><trip id="110" type="pkw" depart="25595.99999999984" from="-23283579#1" to="297047309#0" /><trip id="111" type="pkw" depart="25599.59999999984" from="-186623965#18" to="42925825#0" /><trip id="112" type="pkw" depart="25603.199999999837" from="-186623965#18" to="28675510#4" /><trip id="113" type="pkw" depart="25606.799999999836" from="-42925825#2" to="28675510#4" /><trip id="114" type="pkw" depart="25610.399999999834" from="23283579#1" to="23283579#1" /><trip id="115" type="pkw" depart="25613.999999999833" from="186623965#9" to="186623965#17" /><trip id="116" type="pkw" depart="25617.59999999983" from="-28675510#11" to="-186623965#14" /><trip id="117" type="pkw" depart="25621.19999999983" from="133081987#0" to="23283435#1" /><trip id="118" type="pkw" depart="25624.79999999983" from="23283580#0" to="23286179#2" /><trip id="119" type="pkw" depart="25628.399999999827" from="-42925825#2" to="-186623965#14" /><trip id="120" type="pkw" depart="25631.999999999825" from="-23283579#1" to="23285888#0" /><trip id="121" type="pkw" depart="25635.599999999824" from="186623965#9" to="186623965#17" /><trip id="122" type="pkw" depart="25639.199999999822" from="133081987#0" to="8716827#0" /><trip id="123" type="pkw" depart="25642.79999999982" from="-297047309#0" to="8716827#0" /><trip id="124" type="pkw" depart="25646.39999999982" from="22917421#3" to="186623965#17" /><trip id="125" type="pkw" depart="25649.999999999818" from="-23283579#1" to="8716827#0" /><trip id="126" type="pkw" depart="25653.599999999817" from="23283473" to="297047309#0" /><trip id="127" type="pkw" depart="25657.199999999815" from="24675285" to="23840972" /><trip id="128" type="pkw" depart="25660.799999999814" from="-42925825#2" to="297047309#0" /><trip id="129" type="pkw" depart="25664.399999999812" from="-186623965#18" to="-186623965#14" /><trip id="130" type="pkw" depart="25667.99999999981" from="23840887#3" to="186623965#17" /><trip id="131" type="pkw" depart="25671.59999999981" from="-186623965#18" to="-186623965#14" /><trip id="132" type="pkw" depart="25675.199999999808" from="-23283579#1" to="42925825#0" /><trip id="133" type="pkw" depart="25678.799999999806" from="22917421#3" to="186623965#17" /><trip id="134" type="pkw" depart="25682.399999999805" from="23283470#0" to="323416262" /><trip id="135" type="pkw" depart="25685.999999999804" from="-42925825#2" to="-186623965#14" /><trip id="136" type="pkw" depart="25689.599999999802" from="-42925825#2" to="-186623965#14" /><trip id="137" type="pkw" depart="25693.1999999998" from="23283470#0" to="42925825#0" /><trip id="138" type="pkw" depart="25696.7999999998" from="-23283579#1" to="-22917421#4" /><trip id="139" type="pkw" depart="25700.399999999798" from="-42925825#2" to="-186623965#14" /><trip id="140" type="pkw" depart="25703.999999999796" from="-28675510#11" to="23283470#2" /><trip id="141" type="pkw" depart="25707.599999999795" from="-25168493" to="25168493" /><trip id="142" type="pkw" depart="25711.199999999793" from="-28675510#11" to="8716827#0" /><trip id="143" type="pkw" depart="25714.799999999792" from="-42925825#2" to="297047309#0" /><trip id="144" type="pkw" depart="25718.39999999979" from="22917421#3" to="186623965#17" /><trip id="145" type="pkw" depart="25721.99999999979" from="-186623965#18" to="42925825#0" /><trip id="146" type="pkw" depart="25725.599999999788" from="-4936412" to="-28675493" /><trip id="147" type="pkw" depart="25729.199999999786" from="186623965#9" to="28675510#7" /><trip id="148" type="pkw" depart="25732.799999999785" from="-23283579#1" to="-186623965#14" /><trip id="149" type="pkw" depart="25736.399999999783" from="-23283579#1" to="23283579#1" /><trip id="150" type="pkw" depart="25739.99999999978" from="-23648008#3" to="28675510#7" /><trip id="151" type="pkw" depart="25743.59999999978" from="186623965#9" to="-23840888#0" /><trip id="152" type="pkw" depart="25747.19999999978" from="22917421#3" to="186623965#17" /><trip id="153" type="pkw" depart="25750.799999999777" from="23840713#2" to="155723703#0" /><trip id="154" type="pkw" depart="25754.399999999776" from="-42925825#2" to="-186623965#14" /><trip id="155" type="pkw" depart="25757.999999999774" from="23283473" to="28675510#7" /><trip id="156" type="pkw" depart="25761.599999999773" from="22959552#0" to="28675510#7" /><trip id="157" type="pkw" depart="25765.19999999977" from="186623965#9" to="42925825#0" /><trip id="158" type="pkw" depart="25768.79999999977" from="-42925825#2" to="-186623965#14" /><trip id="159" type="pkw" depart="25772.39999999977" from="-23283579#1" to="8716827#0" /><trip id="160" type="pkw" depart="25775.999999999767" from="-42925825#2" to="28675510#7" /><trip id="161" type="pkw" depart="25779.599999999766" from="23283470#3" to="23283579#1" /><trip id="162" type="pkw" depart="25783.199999999764" from="-186623965#18" to="-186623965#14" /><trip id="163" type="pkw" depart="25786.799999999763" from="-297047307" to="297047309#0" /><trip id="164" type="pkw" depart="25790.39999999976" from="25166682#0" to="297047309#0" /><trip id="165" type="pkw" depart="25793.99999999976" from="-22917421#14" to="186623965#17" /><trip id="166" type="pkw" depart="25797.59999999976" from="-297047309#0" to="22959550#0" /><trip id="167" type="pkw" depart="25801.199999999757" from="-23840935" to="186623965#17" /><trip id="168" type="pkw" depart="25804.799999999756" from="-23283579#1" to="-28675510#3" /><trip id="169" type="pkw" depart="25808.399999999754" from="-23283579#1" to="-22917421#4" /><trip id="170" type="pkw" depart="25811.999999999753" from="-23840712#0" to="28675510#7" /><trip id="171" type="pkw" depart="25815.59999999975" from="-23283579#1" to="323450710#0" /><trip id="172" type="pkw" depart="25819.19999999975" from="-23840888#0" to="23840712#0" /><trip id="173" type="pkw" depart="25822.79999999975" from="-23283579#1" to="-186623965#14" /><trip id="174" type="pkw" depart="25826.399999999747" from="-186623965#18" to="23283579#1" /><trip id="175" type="pkw" depart="25829.999999999745" from="28675510#1" to="23283436" /><trip id="176" type="pkw" depart="25833.599999999744" from="-28675510#11" to="22959550#4" /><trip id="177" type="pkw" depart="25837.199999999742" from="186623965#9" to="23840935" /><trip id="178" type="pkw" depart="25840.79999999974" from="-186623965#18" to="-186623965#14" /><trip id="179" type="pkw" depart="25844.39999999974" from="-4936412" to="23283435#1" /><trip id="180" type="pkw" depart="25847.999999999738" from="8716807#1" to="28675510#7" /><trip id="181" type="pkw" depart="25851.599999999737" from="22917421#3" to="-186623965#14" /><trip id="182" type="pkw" depart="25855.199999999735" from="186623965#9" to="186623965#17" /><trip id="183" type="pkw" depart="25858.799999999734" from="23283470#0" to="23283579#1" /><trip id="184" type="pkw" depart="25862.399999999732" from="23840972" to="28675510#7" /><trip id="185" type="pkw" depart="25865.99999999973" from="23840712#1" to="28675510#7" /><trip id="186" type="pkw" depart="25869.59999999973" from="-23283579#1" to="23283579#1" /><trip id="187" type="pkw" depart="25873.199999999728" from="28675510#1" to="28675510#7" /><trip id="188" type="pkw" depart="25876.799999999726" from="22917421#3" to="28675510#7" /><trip id="189" type="pkw" depart="25880.399999999725" from="-42925825#2" to="-186623965#14" /><trip id="190" type="pkw" depart="25883.999999999724" from="-42925825#2" to="-186623965#14" /><trip id="191" type="pkw" depart="25887.599999999722" from="-186623965#18" to="42925825#0" /><trip id="192" type="pkw" depart="25891.19999999972" from="-25166682#0" to="23283579#1" /><trip id="193" type="pkw" depart="25894.79999999972" from="-186623965#18" to="23283579#1" /><trip id="194" type="pkw" depart="25898.399999999718" from="-23283579#1" to="8716827#0" /><trip id="195" type="pkw" depart="25901.999999999716" from="-28675510#11" to="-186623965#14" /><trip id="196" type="pkw" depart="25905.599999999715" from="186623965#9" to="28675510#7" /><trip id="197" type="pkw" depart="25909.199999999713" from="-186623965#18" to="-186623965#14" /><trip id="198" type="pkw" depart="25912.799999999712" from="-23283579#1" to="297047309#0" /><trip id="199" type="pkw" depart="25916.39999999971" from="8716807#1" to="-186623965#14" /><trip id="200" type="pkw" depart="25919.99999999971" from="-42925825#2" to="-186623965#14" /><trip id="201" type="pkw" depart="25923.599999999708" from="186623965#9" to="186623965#17" /><trip id="202" type="pkw" depart="25927.199999999706" from="186623965#17" to="28675510#7" /><trip id="203" type="pkw" depart="25930.799999999705" from="-42925825#2" to="-186623965#14" /><trip id="204" type="pkw" depart="25934.399999999703" from="-186623965#18" to="8716807#1" /><trip id="205" type="pkw" depart="25937.9999999997" from="-42925825#2" to="23840972" /><trip id="206" type="pkw" depart="25941.5999999997" from="-42925825#2" to="-186623965#14" /><trip id="207" type="pkw" depart="25945.1999999997" from="23283470#3" to="23283579#1" /><trip id="208" type="pkw" depart="25948.799999999697" from="-28675510#11" to="-186623965#14" /><trip id="209" type="pkw" depart="25952.399999999696" from="22917421#3" to="186623965#17" /><trip id="210" type="pkw" depart="25955.999999999694" from="23686088#0" to="8716827#0" /><trip id="211" type="pkw" depart="25959.599999999693" from="-4936412" to="155723703#0" /><trip id="212" type="pkw" depart="25963.19999999969" from="-42925825#2" to="-186623965#14" /><trip id="213" type="pkw" depart="25966.79999999969" from="-42925825#2" to="-186623965#14" /><trip id="214" type="pkw" depart="25970.39999999969" from="-42925825#2" to="42925825#0" /><trip id="215" type="pkw" depart="25973.999999999687" from="-186623965#18" to="-23840712#0" /><trip id="216" type="pkw" depart="25977.599999999686" from="23283469" to="28675510#7" /><trip id="217" type="pkw" depart="25981.199999999684" from="186623965#9" to="186623965#17" /><trip id="218" type="pkw" depart="25984.799999999683" from="-323450710#0" to="25166682#0" /><trip id="219" type="pkw" depart="25988.39999999968" from="-42925825#2" to="42925825#0" /><trip id="220" type="pkw" depart="25991.99999999968" from="-23283579#1" to="-186623965#14" /><trip id="221" type="pkw" depart="25995.59999999968" from="-186623965#16" to="42925825#0" /><trip id="222" type="pkw" depart="25999.199999999677" from="-186623965#18" to="-186623965#14" /><trip id="223" type="pkw" depart="26002.799999999675" from="-23283579#1" to="23285888#0" /><trip id="224" type="pkw" depart="26006.399999999674" from="-23283579#1" to="-186623965#14" /><trip id="225" type="pkw" depart="26009.999999999673" from="-186623965#18" to="-186623965#14" /><trip id="226" type="pkw" depart="26013.59999999967" from="-42925825#2" to="23647126" /><trip id="227" type="pkw" depart="26017.19999999967" from="22917421#3" to="186623965#17" /><trip id="228" type="pkw" depart="26020.79999999967" from="-186623965#18" to="-186623965#14" /><trip id="229" type="pkw" depart="26024.399999999667" from="-297047309#0" to="28675510#7" /><trip id="230" type="pkw" depart="26027.999999999665" from="-323450710#0" to="-186623965#14" /><trip id="231" type="pkw" depart="26031.599999999664" from="160807420" to="23840712#0" /><trip id="232" type="pkw" depart="26035.199999999662" from="23283470#0" to="42925825#0" /><trip id="233" type="pkw" depart="26038.79999999966" from="-42925825#2" to="-186623965#14" /><trip id="234" type="pkw" depart="26042.39999999966" from="22917421#3" to="23283470#2" /><trip id="235" type="pkw" depart="26045.999999999658" from="-42925825#2" to="-186623965#14" /><trip id="236" type="pkw" depart="26049.599999999657" from="-42925825#2" to="-186623965#14" /><trip id="237" type="pkw" depart="26053.199999999655" from="-297047309#0" to="28675510#7" /><trip id="238" type="pkw" depart="26056.799999999654" from="22959550#3" to="-186623965#14" /><trip id="239" type="pkw" depart="26060.399999999652" from="-23283579#1" to="-186623965#14" /><trip id="240" type="pkw" depart="26063.99999999965" from="-186623965#18" to="-28675493" /><trip id="241" type="pkw" depart="26067.59999999965" from="-23283579#1" to="60909001" /><trip id="242" type="pkw" depart="26071.199999999648" from="-28675493" to="323450710#0" /><trip id="243" type="pkw" depart="26074.799999999646" from="-42925825#2" to="-186623965#14" /><trip id="244" type="pkw" depart="26078.399999999645" from="-186623965#18" to="-186623965#14" /><trip id="245" type="pkw" depart="26081.999999999643" from="186623965#9" to="186623965#17" /><trip id="246" type="pkw" depart="26085.599999999642" from="-23283579#1" to="23840887#0" /><trip id="247" type="pkw" depart="26089.19999999964" from="-186623965#18" to="42925825#0" /><trip id="248" type="pkw" depart="26092.79999999964" from="-4936412" to="8716827#0" /><trip id="249" type="pkw" depart="26096.399999999638" from="-28675510#11" to="-186623965#14" /><trip id="250" type="pkw" depart="26099.999999999636" from="-28675510#11" to="-186623965#14" /><trip id="251" type="pkw" depart="26103.599999999635" from="-23283579#1" to="-186623965#14" /><trip id="252" type="pkw" depart="26107.199999999633" from="-23283579#1" to="-186623965#14" /><trip id="253" type="pkw" depart="26110.799999999632" from="22917421#3" to="186623965#17" /><trip id="254" type="pkw" depart="26114.39999999963" from="23647118" to="-186623965#14" /><trip id="255" type="pkw" depart="26117.99999999963" from="-186623965#18" to="-186623965#14" /><trip id="256" type="pkw" depart="26121.599999999627" from="23840888#1" to="-186623965#14" /><trip id="257" type="pkw" depart="26125.199999999626" from="-186623965#18" to="-186623965#14" /><trip id="258" type="pkw" depart="26128.799999999625" from="-28675510#11" to="42925825#0" /><trip id="259" type="pkw" depart="26132.399999999623" from="28691861" to="-186623965#14" /><trip id="260" type="pkw" depart="26135.99999999962" from="-23283579#1" to="28675510#7" /><trip id="261" type="pkw" depart="26139.59999999962" from="22917421#3" to="42925825#0" /><trip id="262" type="pkw" depart="26143.19999999962" from="-186623965#18" to="-186623965#14" /><trip id="263" type="pkw" depart="26146.799999999617" from="-23840712#0" to="297047309#0" /><trip id="264" type="pkw" depart="26150.399999999616" from="-23283579#1" to="-186623965#14" /><trip id="265" type="pkw" depart="26153.999999999614" from="-186623965#18" to="-186623965#14" /><trip id="266" type="pkw" depart="26157.599999999613" from="22917421#3" to="186623965#17" /><trip id="267" type="pkw" depart="26161.19999999961" from="25166682#0" to="28675510#7" /><trip id="268" type="pkw" depart="26164.79999999961" from="-186623965#18" to="-186623965#14" /><trip id="269" type="pkw" depart="26168.39999999961" from="-42925825#2" to="23648008#0" /><trip id="270" type="pkw" depart="26171.999999999607" from="-42925825#2" to="22959552#0" /><trip id="271" type="pkw" depart="26175.599999999606" from="-23283579#1" to="297047309#0" /><trip id="272" type="pkw" depart="26179.199999999604" from="22917421#3" to="-186623965#14" /><trip id="273" type="pkw" depart="26182.799999999603" from="-297047308" to="23283436" /><trip id="274" type="pkw" depart="26186.3999999996" from="-28675510#11" to="155723703#0" /><trip id="275" type="pkw" depart="26189.9999999996" from="22917421#3" to="186623965#17" /><trip id="276" type="pkw" depart="26193.5999999996" from="23840712#1" to="28675510#7" /><trip id="277" type="pkw" depart="26197.199999999597" from="-42925825#2" to="-186623965#14" /><trip id="278" type="pkw" depart="26200.799999999595" from="23283474" to="22959552#0" /><trip id="279" type="pkw" depart="26204.399999999594" from="-42925825#2" to="-186623965#14" /><trip id="280" type="pkw" depart="26207.999999999593" from="-4936412" to="8716827#0" /><trip id="281" type="pkw" depart="26211.59999999959" from="-23283579#1" to="297047309#0" /><trip id="282" type="pkw" depart="26215.19999999959" from="22917421#3" to="28691861" /><trip id="283" type="pkw" depart="26218.799999999588" from="-28675510#11" to="8716827#0" /><trip id="284" type="pkw" depart="26222.399999999587" from="-28675510#11" to="23283579#1" /><trip id="285" type="pkw" depart="26225.999999999585" from="22917421#3" to="28675510#7" /><trip id="286" type="pkw" depart="26229.599999999584" from="22917421#3" to="186623965#17" /><trip id="287" type="pkw" depart="26233.199999999582" from="22917421#3" to="23840972" /><trip id="288" type="pkw" depart="26236.79999999958" from="23283579#1" to="28675510#7" /><trip id="289" type="pkw" depart="26240.39999999958" from="23283470#0" to="42925825#0" /><trip id="290" type="pkw" depart="26243.999999999578" from="23283470#0" to="42925825#0" /><trip id="291" type="pkw" depart="26247.599999999577" from="-42925825#2" to="42925825#0" /><trip id="292" type="pkw" depart="26251.199999999575" from="186623965#9" to="42925825#0" /><trip id="293" type="pkw" depart="26254.799999999574" from="-42925825#2" to="297047309#0" /><trip id="294" type="pkw" depart="26258.399999999572" from="186623965#9" to="42925825#0" /><trip id="295" type="pkw" depart="26261.99999999957" from="-23283579#1" to="186623965#17" /><trip id="296" type="pkw" depart="26265.59999999957" from="160807420" to="23283436" /><trip id="297" type="pkw" depart="26269.199999999568" from="-23840712#0" to="28675510#7" /><trip id="298" type="pkw" depart="26272.799999999566" from="-186623965#18" to="-186623965#14" /><trip id="299" type="pkw" depart="26276.399999999565" from="-186623965#18" to="-186623965#14" /><trip id="300" type="pkw" depart="26279.999999999563" from="23286179#2" to="28675510#7" /><trip id="301" type="pkw" depart="26283.599999999562" from="-297047307" to="-186623965#14" /><trip id="302" type="pkw" depart="26287.19999999956" from="-23283579#1" to="-186623965#14" /><trip id="303" type="pkw" depart="26290.79999999956" from="8716807#1" to="28675510#7" /><trip id="304" type="pkw" depart="26294.399999999558" from="160807420" to="155723703#0" /><trip id="305" type="pkw" depart="26297.999999999556" from="22917421#3" to="42925825#0" /><trip id="306" type="pkw" depart="26301.599999999555" from="-23283579#1" to="4936412" /><trip id="307" type="pkw" depart="26305.199999999553" from="-42925825#2" to="42925825#0" /><trip id="308" type="pkw" depart="26308.79999999955" from="22917421#3" to="28675510#7" /><trip id="309" type="pkw" depart="26312.39999999955" from="-42925825#2" to="297047309#0" /><trip id="310" type="pkw" depart="26315.99999999955" from="-186623965#18" to="42925825#0" /><trip id="311" type="pkw" depart="26319.599999999547" from="-186623965#18" to="42925825#0" /><trip id="312" type="pkw" depart="26323.199999999546" from="-42925825#2" to="-186623965#14" /><trip id="313" type="pkw" depart="26326.799999999545" from="186623965#9" to="186623965#17" /><trip id="314" type="pkw" depart="26330.399999999543" from="-297047309#0" to="-28675493" /><trip id="315" type="pkw" depart="26333.99999999954" from="-42925825#2" to="-186623965#14" /><trip id="316" type="pkw" depart="26337.59999999954" from="-186623965#18" to="-186623965#14" /><trip id="317" type="pkw" depart="26341.19999999954" from="186623965#9" to="28675510#7" /><trip id="318" type="pkw" depart="26344.799999999537" from="22917421#3" to="186623965#17" /><trip id="319" type="pkw" depart="26348.399999999536" from="23283470#0" to="42925825#0" /><trip id="320" type="pkw" depart="26351.999999999534" from="-4936412" to="-28675493" /><trip id="321" type="pkw" depart="26355.599999999533" from="-23283579#1" to="186623965#17" /><trip id="322" type="pkw" depart="26359.19999999953" from="-28675510#11" to="155723703#0" /><trip id="323" type="pkw" depart="26362.79999999953" from="-23840712#0" to="28675510#7" /><trip id="324" type="pkw" depart="26366.39999999953" from="23283579#1" to="23283579#1" /><trip id="325" type="pkw" depart="26369.999999999527" from="186623965#9" to="186623965#17" /><trip id="326" type="pkw" depart="26373.599999999526" from="-186623965#18" to="297047309#0" /><tri