<routes xmlns:xsi="http://www.w3.org/2001/XMLSchema-instance" xsi:noNamespaceSchemaLocation="http://sumo.dlr.de/xsd/routes_file.xsd">
	<vType id="bus" vClass="bus" color="green" />
	<vType id="default_017" vClass="passenger" color="red" />
    <vType id="random_017" vClass="passenger" color="blue" />
	<vType id="default_016" vClass="passenger" color="red" />
    <vType id="random_016" vClass="passenger" color="blue" />
	<vType id="default_015" vClass="passenger" color="red" />
    <vType id="random_015" vClass="passenger" color="blue" />
	<vType id="default_014" vClass="passenger" color="red" />
    <vType id="random_014" vClass="passenger" color="blue" />
	<vType id="default_013" vClass="passenger" color="red" />
    <vType id="random_013" vClass="passenger" color="blue" />
    <vType id="default_012" vClass="passenger" color="red" />
    <vType id="random_012" vClass="passenger" color="blue" />
	<vType id="default_011" vClass="passenger" color="red" />
    <vType id="random_011" vClass="passenger" color="blue" />
	<vType id="default_010" vClass="passenger" color="red" />
    <vType id="random_010" vClass="passenger" color="blue" />
	<vType id="default_009" vClass="passenger" color="red" />
    <vType id="random_009" vClass="passenger" color="blue" />
	<vType id="default_008" vClass="passenger" color="red" />
    <vType id="random_008" vClass="passenger" color="blue" />
	<vType id="default_007" vClass="passenger" color="red" />
    <vType id="random_007" vClass="passenger" color="blue" />
	<vType id="default_006" vClass="passenger" color="red" />
    <vType id="random_006" vClass="passenger" color="blue" />
	<vType id="default_005" vClass="passenger" color="red" />
    <vType id="random_005" vClass="passenger" color="blue" />
	<vType id="default_004" vClass="passenger" color="red" />
    <vType id="random_004" vClass="passenger" color="blue" />
	<vType id="default_003" vClass="passenger" color="red" />
    <vType id="random_003" vClass="passenger" color="blue" />
	<vType id="default_022" vClass="passenger" color="red" />
    <vType id="random_022" vClass="passenger" color="blue" />
	<vType id="default_021" vClass="passenger" color="red" />
    <vType id="random_021" vClass="passenger" color="blue" />
	<vType id="default_020" vClass="passenger" color="red" />
    <vType id="random_020" vClass="passenger" color="blue" />
	<vType id="default_019" vClass="passenger" color="red" />
    <vType id="random_019" vClass="passenger" color="blue" />
	<vType id="default_018" vClass="passenger" color="red" />
    <vType id="random_018" vClass="passenger" color="blue" />
	<vType id="default_002" vClass="passenger" color="red" />
    <vType id="random_002" vClass="passenger" color="blue" />
	<vType id="default_001" vClass="passenger" color="red" />
    <vType id="random_001" vClass="passenger" color="blue" />
<trip id="0" type="default_016" depart="57600" from="27920078#0" to="-83304175#2" /><trip id="1" type="default_016" depart="57601.18772682283" from="-32978638#0" to="-315358253#1" /><trip id="2" type="default_016" depart="57602.375453645654" from="124812856#0" to="-653473569#5" /><trip id="3" type="random_017" depart="57603.56318046848" from="-32978638#0" to="24693977#1" /><trip id="4" type="default_016" depart="57604.75090729131" from="266565295#5" to="-315358253#1" /><trip id="5" type="default_017" depart="57605.938634114136" from="653473569#5" to="-266565295#5" /><trip id="6" type="default_017" depart="57607.12636093696" from="315358253#1" to="32978638#0" /><trip id="7" type="default_017" depart="57608.31408775979" from="124812856#0" to="-83304175#2" /><trip id="8" type="default_017" depart="57609.50181458262" from="27920078#0" to="201956820" /><trip id="9" type="default_016" depart="57610.689541405445" from="25145012#7" to="201956811#0" /><trip id="10" type="default_017" depart="57611.87726822827" from="27920078#0" to="201956820" /><trip id="11" type="default_017" depart="57613.0649950511" from="10425609#0" to="202070434#2" /><trip id="12" type="default_017" depart="57614.25272187393" from="-24693977#1" to="201956820" /><trip id="13" type="default_016" depart="57615.440448696754" from="27920078#0" to="-266565295#5" /><trip id="14" type="default_016" depart="57616.62817551958" from="-24693977#1" to="-266565295#5" /><trip id="15" type="default_017" depart="57617.81590234241" from="27920078#0" to="201956820" /><trip id="16" type="default_016" depart="57619.003629165236" from="10425609#0" to="-653473569#5" /><trip id="17" type="default_016" depart="57620.19135598806" from="653473569#5" to="-266565295#5" /><trip id="18" type="default_017" depart="57621.37908281089" from="266565295#5" to="24693977#1" /><trip id="19" type="default_017" depart="57622.56680963372" from="-24693977#1" to="32978638#0" /><trip id="20" type="default_016" depart="57623.754536456545" from="-32978638#0" to="24693977#1" /><trip id="21" type="default_017" depart="57624.94226327937" from="51857517#0" to="-266565295#5" /><trip id="22" type="default_017" depart="57626.1299901022" from="266565295#5" to="202070434#2" /><trip id="23" type="default_017" depart="57627.31771692503" from="653473569#5" to="201956820" /><trip id="24" type="default_016" depart="57628.505443747854" from="25145012#7" to="201956811#0" /><trip id="25" type="default_017" depart="57629.69317057068" from="124812856#0" to="201956810" /><trip id="26" type="default_016" depart="57630.88089739351" from="266565295#5" to="202070434#2" /><trip id="27" type="default_016" depart="57632.068624216336" from="-24693977#1" to="201956820" /><trip id="28" type="default_017" depart="57633.25635103916" from="266565295#5" to="24693977#1" /><trip id="29" type="default_017" depart="57634.44407786199" from="315358253#1" to="32978638#0" /><trip id="30" type="default_017" depart="57635.63180468482" from="24608846#1" to="-104010328" /><trip id="31" type="default_016" depart="57636.819531507645" from="124812856#0" to="-653473569#5" /><trip id="32" type="default_017" depart="57638.00725833047" from="315358253#1" to="32978638#0" /><trip id="33" type="default_016" depart="57639.1949851533" from="653473569#5" to="201956820" /><trip id="34" type="random_016" depart="57640.382711976126" from="653473569#5" to="201956820" /><trip id="35" type="default_016" depart="57641.57043879895" from="25145012#7" to="201956811#0" /><trip id="36" type="default_016" depart="57642.75816562178" from="10425609#0" to="-653473569#5" /><trip id="37" type="default_016" depart="57643.94589244461" from="24599188#0.94" to="24693977#1" /><trip id="38" type="default_016" depart="57645.133619267435" from="315358253#1" to="402600768#1" /><trip id="39" type="default_017" depart="57646.32134609026" from="27920078#0" to="201956820" /><trip id="40" type="default_017" depart="57647.50907291309" from="285716192#0" to="201956811#0" /><trip id="41" type="default_017" depart="57648.69679973592" from="27920078#0" to="201956820" /><trip id="42" type="default_016" depart="57649.884526558744" from="315358253#1" to="-266565295#5" /><trip id="43" type="default_017" depart="57651.07225338157" from="27920078#0" to="-83304175#2" /><trip id="44" type="default_017" depart="57652.2599802044" from="315358253#1" to="-37386279" /><trip id="45" type="default_017" depart="57653.447707027226" from="124812856#0" to="-653473569#5" /><trip id="46" type="random_016" depart="57654.63543385005" from="315358253#1" to="-653473569#5" /><trip id="47" type="default_017" depart="57655.82316067288" from="266565295#5" to="-653473569#5" /><trip id="48" type="default_017" depart="57657.01088749571" from="124812856#0" to="-653473569#5" /><trip id="49" type="default_017" depart="57658.198614318535" from="124812856#0" to="201956810" /><trip id="50" type="default_016" depart="57659.38634114136" from="266565295#5" to="202070434#2" /><trip id="51" type="default_017" depart="57660.57406796419" from="27920078#0" to="-83304175#2" /><trip id="52" type="default_016" depart="57661.76179478702" from="266565295#5" to="-315358253#1" /><trip id="53" type="random_016" depart="57662.949521609844" from="124812856#0" to="201956810" /><trip id="54" type="default_017" depart="57664.13724843267" from="653473569#5" to="201956811#0" /><trip id="55" type="random_016" depart="57665.3249752555" from="653473569#5" to="201956811#0" /><trip id="56" type="default_017" depart="57666.512702078326" from="27920078#0" to="201956820" /><trip id="57" type="default_017" depart="57667.70042890115" from="10425609#0" to="202070434#2" /><trip id="58" type="default_017" depart="57668.88815572398" from="-24693977#1" to="-266565295#5" /><trip id="59" type="default_016" depart="57670.07588254681" from="24599188#0.94" to="24693977#1" /><trip id="60" type="default_016" depart="57671.263609369635" from="27920078#0" to="201956820" /><trip id="61" type="default_017" depart="57672.45133619246" from="-24693977#1" to="32978638#0" /><trip id="62" type="default_016" depart="57673.63906301529" from="124812856#0" to="24693977#1" /><trip id="63" type="default_016" depart="57674.82678983812" from="10425609#0" to="-653473569#5" /><trip id="64" type="default_016" depart="57676.01451666094" from="10425609#0" to="202070434#2" /><trip id="65" type="default_016" depart="57677.20224348377" from="124812856#0" to="202070434#2" /><trip id="66" type="default_016" depart="57678.3899703066" from="315358253#1" to="32978638#0" /><trip id="67" type="default_017" depart="57679.577697129425" from="124812856#0" to="-653473569#5" /><trip id="68" type="default_016" depart="57680.76542395225" from="124812856#0" to="24693977#1" /><trip id="69" type="default_017" depart="57681.95315077508" from="124812856#0" to="201956810" /><trip id="70" type="default_017" depart="57683.14087759791" from="-173169611#0" to="201963537#1" /><trip id="71" type="default_017" depart="57684.328604420734" from="315358253#1" to="32978638#0" /><trip id="72" type="default_017" depart="57685.51633124356" from="25145012#7" to="201956820" /><trip id="73" type="random_017" depart="57686.70405806639" from="-32978638#0" to="-315358253#1" /><trip id="74" type="default_016" depart="57687.891784889216" from="10425609#0" to="-653473569#5" /><trip id="75" type="default_017" depart="57689.07951171204" from="124812856#0" to="202070434#2" /><trip id="76" type="default_016" depart="57690.26723853487" from="124812856#0" to="201956810" /><trip id="77" type="default_017" depart="57691.4549653577" from="27920078#0" to="-266565295#5" /><trip id="78" type="default_017" depart="57692.642692180525" from="27920078#0" to="201956820" /><trip id="79" type="bus" depart="57693.83041900335" from="10425609#0" to="202070434#2" /><trip id="80" type="default_017" depart="57695.01814582618" from="315358253#1" to="201956820" /><trip id="81" type="default_016" depart="57696.20587264901" from="10425609#0" to="202070434#2" /><trip id="82" type="default_017" depart="57697.393599471834" from="27920078#0" to="201956811#0" /><trip id="83" type="default_017" depart="57698.58132629466" from="266565295#5" to="24693977#1" /><trip id="84" type="default_017" depart="57699.76905311749" from="653473569#5" to="201956811#0" /><trip id="85" type="default_017" depart="57700.956779940316" from="124812856#0" to="-315358253#1" /><trip id="86" type="default_017" depart="57702.14450676314" from="10425609#0" to="-653473569#5" /><trip id="87" type="default_017" depart="57703.33223358597" from="266565295#5" to="24693977#1" /><trip id="88" type="default_017" depart="57704.5199604088" from="266565295#5" to="24693977#1" /><trip id="89" type="default_017" depart="57705.707687231625" from="27920078#0" to="201956820" /><trip id="90" type="default_016" depart="57706.89541405445" from="124812856#0" to="-653473569#5" /><trip id="91" type="default_017" depart="57708.08314087728" from="266565295#5" to="24693977#1" /><trip id="92" type="default_016" depart="57709.27086770011" from="124812856#0" to="202070434#2" /><trip id="93" type="default_016" depart="57710.458594522934" from="124812856#0" to="201956810" /><trip id="94" type="default_017" depart="57711.64632134576" from="10425609#0" to="202070434#2" /><trip id="95" type="default_016" depart="57712.83404816859" from="266565295#5" to="202070434#2" /><trip id="96" type="random_017" depart="57714.021774991415" from="653473569#5" to="201956820" /><trip id="97" type="default_016" depart="57715.20950181424" from="315358253#1" to="32978638#0" /><trip id="98" type="default_017" depart="57716.39722863707" from="24599188#0.94" to="-315358253#1" /><trip id="99" type="default_017" depart="57717.5849554599" from="124812856#0" to="202070434#2" /><trip id="100" type="default_017" depart="57718.772682282724" from="-32978638#0" to="-315358253#1" /><trip id="101" type="default_016" depart="57719.96040910555" from="-24693977#1" to="-266565295#5" /><trip id="102" type="default_017" depart="57721.14813592838" from="124812856#0" to="-653473569#5" /><trip id="103" type="default_016" depart="57722.335862751206" from="124812856#0" to="202070434#2" /><trip id="104" type="default_016" depart="57723.52358957403" from="315358253#1" to="32978638#0" /><trip id="105" type="default_016" depart="57724.71131639686" from="266565295#5" to="-315358253#1" /><trip id="106" type="default_017" depart="57725.89904321969" from="653473569#5" to="-315358253#1" /><trip id="107" type="default_017" depart="57727.086770042515" from="27920078#0" to="201956820" /><trip id="108" type="default_016" depart="57728.27449686534" from="10425609#0" to="201956810" /><trip id="109" type="bus" depart="57729.46222368817" from="10425609#0" to="202070434#2" /><trip id="110" type="default_016" depart="57730.649950511" from="25145012#7" to="201956820" /><trip id="111" type="random_017" depart="57731.837677333824" from="10425609#0" to="-653473569#5" /><trip id="112" type="default_017" depart="57733.02540415665" from="653473569#5" to="201956811#0" /><trip id="113" type="default_016" depart="57734.21313097948" from="24599188#0.94" to="24693977#1" /><trip id="114" type="default_017" depart="57735.400857802306" from="124812856#0" to="201956810" /><trip id="115" type="default_017" depart="57736.58858462513" from="-32978638#0" to="24693977#1" /><trip id="116" type="default_017" depart="57737.77631144796" from="27920078#0" to="201956820" /><trip id="117" type="default_017" depart="57738.96403827079" from="-32978638#0" to="24693977#1" /><trip id="118" type="default_016" depart="57740.151765093615" from="-24693977#1" to="-266565295#5" /><trip id="119" type="random_017" depart="57741.33949191644" from="653473569#5" to="201956820" /><trip id="120" type="default_016" depart="57742.52721873927" from="-24693977#1" to="-266565295#5" /><trip id="121" type="random_017" depart="57743.7149455621" from="315358253#1" to="32978638#0" /><trip id="122" type="random_017" depart="57744.902672384924" from="124812856#0" to="-653473569#5" /><trip id="123" type="default_017" depart="57746.09039920775" from="27920078#0" to="201956820" /><trip id="124" type="default_016" depart="57747.27812603058" from="124812856#0" to="-653473569#5" /><trip id="125" type="random_017" depart="57748.465852853406" from="-32978638#0" to="-315358253#1" /><trip id="126" type="default_016" depart="57749.65357967623" from="24599188#0.94" to="24693977#1" /><trip id="127" type="default_017" depart="57750.84130649906" from="266565295#5" to="32978638#0" /><trip id="128" type="default_016" depart="57752.02903332189" from="315358253#1" to="-266565295#5" /><trip id="129" type="default_016" depart="57753.216760144714" from="24599188#0.94" to="24693977#1" /><trip id="130" type="default_017" depart="57754.40448696754" from="-32978638#0" to="24693977#1" /><trip id="131" type="default_017" depart="57755.59221379037" from="653473569#5" to="-266565295#5" /><trip id="132" type="default_017" depart="57756.779940613196" from="653473569#5" to="201956811#0" /><trip id="133" type="default_017" depart="57757.96766743602" from="124812856#0" to="202070434#2" /><trip id="134" type="default_016" depart="57759.15539425885" from="124812856#0" to="202070434#2" /><trip id="135" type="default_017" depart="57760.34312108168" from="-173169611#0" to="201956820" /><trip id="136" type="default_016" depart="57761.530847904505" from="653473569#5" to="-83304175#2" /><trip id="137" type="default_016" depart="57762.71857472733" from="124812856#0" to="-653473569#5" /><trip id="138" type="default_017" depart="57763.90630155016" from="653473569#5" to="201956811#0" /><trip id="139" type="default_017" depart="57765.09402837299" from="266565295#5" to="-653473569#5" /><trip id="140" type="default_016" depart="57766.281755195814" from="27920078#0" to="201956811#0" /><trip id="141" type="default_016" depart="57767.46948201864" from="124812856#0" to="201956810" /><trip id="142" type="default_017" depart="57768.65720884147" from="27920078#0" to="201956820" /><trip id="143" type="default_016" depart="57769.844935664296" from="-24693977#1" to="-266565295#5" /><trip id="144" type="default_016" depart="57771.03266248712" from="24634414#4" to="-37386279" /><trip id="145" type="default_017" depart="57772.22038930995" from="27920078#0" to="201956820" /><trip id="146" type="default_017" depart="57773.40811613278" from="27920078#0" to="-83304175#2" /><trip id="147" type="default_017" depart="57774.595842955605" from="315358253#1" to="32978638#0" /><trip id="148" type="default_016" depart="57775.78356977843" from="315358253#1" to="32978638#0" /><trip id="149" type="default_016" depart="57776.97129660126" from="124812856#0" to="-653473569#5" /><trip id="150" type="default_017" depart="57778.15902342409" from="124812856#0" to="202070434#2" /><trip id="151" type="random_016" depart="57779.346750246914" from="315358253#1" to="-653473569#5" /><trip id="152" type="default_017" depart="57780.53447706974" from="124812856#0" to="-653473569#5" /><trip id="153" type="default_016" depart="57781.72220389257" from="124812856#0" to="202070434#2" /><trip id="154" type="default_016" depart="57782.909930715396" from="124812856#0" to="-653473569#5" /><trip id="155" type="default_016" depart="57784.09765753822" from="315358253#1" to="202070434#2" /><trip id="156" type="default_016" depart="57785.28538436105" from="653473569#5" to="201956811#0" /><trip id="157" type="default_016" depart="57786.47311118388" from="-24693977#1" to="-266565295#5" /><trip id="158" type="random_017" depart="57787.660838006705" from="10425609#0" to="-653473569#5" /><trip id="159" type="default_016" depart="57788.84856482953" from="266565295#5" to="32978638#0" /><trip id="160" type="default_017" depart="57790.03629165236" from="653473569#5" to="201956820" /><trip id="161" type="default_017" depart="57791.224018475186" from="-32978638#0" to="-315358253#1" /><trip id="162" type="default_016" depart="57792.41174529801" from="-24693977#1" to="-266565295#5" /><trip id="163" type="default_017" depart="57793.59947212084" from="653473569#5" to="201956820" /><trip id="164" type="default_017" depart="57794.78719894367" from="24599188#0.94" to="22716549#0" /><trip id="165" type="default_017" depart="57795.974925766495" from="653473569#5" to="-315358253#1" /><trip id="166" type="default_017" depart="57797.16265258932" from="24608846#1" to="-104010328" /><trip id="167" type="default_017" depart="57798.35037941215" from="653473569#5" to="201956811#0" /><trip id="168" type="default_016" depart="57799.53810623498" from="10425609#0" to="-653473569#5" /><trip id="169" type="default_016" depart="57800.725833057804" from="124812856#0" to="201956810" /><trip id="170" type="default_016" depart="57801.91355988063" from="27920078#0" to="-83304175#2" /><trip id="171" type="default_017" depart="57803.10128670346" from="10425609#0" to="-653473569#5" /><trip id="172" type="bus" depart="57804.289013526286" from="-24693977#1" to="32978638#0" /><trip id="173" type="default_017" depart="57805.47674034911" from="-24693977#1" to="32978638#0" /><trip id="174" type="default_017" depart="57806.66446717194" from="124812856#0" to="202070434#2" /><trip id="175" type="default_016" depart="57807.85219399477" from="10425609#0" to="-653473569#5" /><trip id="176" type="default_017" depart="57809.039920817595" from="315358253#1" to="32978638#0" /><trip id="177" type="default_016" depart="57810.22764764042" from="10425609#0" to="-653473569#5" /><trip id="178" type="default_017" depart="57811.41537446325" from="653473569#5" to="-315358253#1" /><trip id="179" type="default_016" depart="57812.60310128608" from="10425609#0" to="-653473569#5" /><trip id="180" type="default_016" depart="57813.790828108904" from="653473569#5" to="201956820" /><trip id="181" type="default_017" depart="57814.97855493173" from="315358253#1" to="32978638#0" /><trip id="182" type="default_016" depart="57816.16628175456" from="315358253#1" to="32978638#0" /><trip id="183" type="default_017" depart="57817.354008577386" from="124812856#0" to="201956810" /><trip id="184" type="default_017" depart="57818.54173540021" from="266565295#5" to="24693977#1" /><trip id="185" type="default_016" depart="57819.72946222304" from="-24693977#1" to="-266565295#5" /><trip id="186" type="default_016" depart="57820.91718904587" from="27920078#0" to="201956820" /><trip id="187" type="default_018" depart="57822.104915868695" from="266565295#5" to="32978638#0" /><trip id="188" type="default_016" depart="57823.29264269152" from="-32978638#0" to="24693977#1" /><trip id="189" type="default_017" depart="57824.48036951435" from="124812856#0" to="-653473569#5" /><trip id="190" type="default_017" depart="57825.66809633718" from="653473569#5" to="201956811#0" /><trip id="191" type="default_017" depart="57826.85582316" from="25145012#7" to="201956811#0" /><trip id="192" type="default_016" depart="57828.04354998283" from="-24693977#1" to="-266565295#5" /><trip id="193" type="default_016" depart="57829.23127680566" from="124812856#0" to="-653473569#5" /><trip id="194" type="default_016" depart="57830.419003628485" from="315358253#1" to="-266565295#5" /><trip id="195" type="default_017" depart="57831.60673045131" from="124812856#0" to="202070434#2" /><trip id="196" type="default_017" depart="57832.79445727414" from="25145012#7" to="201956820" /><trip id="197" type="default_016" depart="57833.98218409697" from="25145012#7" to="201956820" /><trip id="198" type="default_017" depart="57835.169910919794" from="653473569#5" to="-83304175#2" /><trip id="199" type="default_016" depart="57836.35763774262" from="124812856#0" to="-315358253#1" /><trip id="200" type="default_017" depart="57837.54536456545" from="315358253#1" to="32978638#0" /><trip id="201" type="default_016" depart="57838.733091388276" from="-32978638#0" to="-315358253#1" /><trip id="202" type="random_017" depart="57839.9208182111" from="-173169611#0" to="201956820" /><trip id="203" type="default_016" depart="57841.10854503393" from="653473569#5" to="201956811#0" /><trip id="204" type="default_017" depart="57842.29627185676" from="-315358253#1" to="-315358253#1" /><trip id="205" type="default_017" depart="57843.483998679585" from="27920078#0" to="-315358253#1" /><trip id="206" type="default_017" depart="57844.67172550241" from="653473569#5" to="201956820" /><trip id="207" type="default_016" depart="57845.85945232524" from="653473569#5" to="201956811#0" /><trip id="208" type="default_016" depart="57847.04717914807" from="24599188#0.94" to="22716549#0" /><trip id="209" type="default_017" depart="57848.234905970894" from="653473569#5" to="201956820" /><trip id="210" type="default_016" depart="57849.42263279372" from="24599188#0.94" to="24693977#1" /><trip id="211" type="random_016" depart="57850.61035961655" from="10425609#0" to="-653473569#5" /><trip id="212" type="default_017" depart="57851.798086439376" from="10425609#0" to="201956810" /><trip id="213" type="default_017" depart="57852.9858132622" from="-24693977#1" to="32978638#0" /><trip id="214" type="default_016" depart="57854.17354008503" from="653473569#5" to="201956811#0" /><trip id="215" type="default_016" depart="57855.36126690786" from="124812856#0" to="201956810" /><trip id="216" type="default_016" depart="57856.548993730685" from="27920078#0" to="-83304175#2" /><trip id="217" type="default_016" depart="57857.73672055351" from="25145012#7" to="201956811#0" /><trip id="218" type="default_016" depart="57858.92444737634" from="10425609#0" to="-653473569#5" /><trip id="219" type="random_017" depart="57860.11217419917" from="25145012#7" to="201956820" /><trip id="220" type="default_017" depart="57861.299901021994" from="653473569#5" to="201956811#0" /><trip id="221" type="default_017" depart="57862.48762784482" from="124812856#0" to="201956810" /><trip id="222" type="default_016" depart="57863.67535466765" from="-24693977#1" to="-266565295#5" /><trip id="223" type="default_016" depart="57864.863081490475" from="124812856#0" to="-653473569#5" /><trip id="224" type="default_017" depart="57866.0508083133" from="10425609#0" to="-653473569#5" /><trip id="225" type="default_017" depart="57867.23853513613" from="266565295#5" to="24693977#1" /><trip id="226" type="default_017" depart="57868.42626195896" from="-32978638#0" to="-315358253#1" /><trip id="227" type="default_016" depart="57869.613988781784" from="10425609#0" to="202070434#2" /><trip id="228" type="default_016" depart="57870.80171560461" from="315358253#1" to="402600768#1" /><trip id="229" type="default_016" depart="57871.98944242744" from="653473569#5" to="201956811#0" /><trip id="230" type="default_017" depart="57873.177169250266" from="27920078#0" to="201956820" /><trip id="231" type="default_017" depart="57874.36489607309" from="653473569#5" to="201956811#0" /><trip id="232" type="default_016" depart="57875.55262289592" from="27920078#0" to="201956820" /><trip id="233" type="default_017" depart="57876.74034971875" from="266565295#5" to="32978638#0" /><trip id="234" type="default_017" depart="57877.928076541575" from="-32978638#0" to="24693977#1" /><trip id="235" type="default_017" depart="57879.1158033644" from="24599188#0.94" to="24693977#1" /><trip id="236" type="default_017" depart="57880.30353018723" from="27920078#0" to="201956820" /><trip id="237" type="default_017" depart="57881.49125701006" from="315358253#1" to="-266565295#5" /><trip id="238" type="default_016" depart="57882.678983832884" from="266565295#5" to="24693977#1" /><trip id="239" type="default_016" depart="57883.86671065571" from="10425609#0" to="-653473569#5" /><trip id="240" type="default_016" depart="57885.05443747854" from="653473569#5" to="201956820" /><trip id="241" type="default_016" depart="57886.242164301366" from="24599188#0.94" to="24693977#1" /><trip id="242" type="default_017" depart="57887.42989112419" from="653473569#5" to="-266565295#5" /><trip id="243" type="default_017" depart="57888.61761794702" from="10425609#0" to="-653473569#5" /><trip id="244" type="bus" depart="57889.80534476985" from="653473569#5" to="201956811#0" /><trip id="245" type="default_017" depart="57890.993071592675" from="124812856#0" to="-653473569#5" /><trip id="246" type="default_016" depart="57892.1807984155" from="124812856#0" to="201956810" /><trip id="247" type="default_017" depart="57893.36852523833" from="653473569#5" to="201956820" /><trip id="248" type="default_016" depart="57894.55625206116" from="10425609#0" to="-653473569#5" /><trip id="249" type="default_016" depart="57895.743978883984" from="315358253#1" to="32978638#0" /><trip id="250" type="default_017" depart="57896.93170570681" from="24599188#0.94" to="22716549#0" /><trip id="251" type="default_016" depart="57898.11943252964" from="124812856#0" to="201956810" /><trip id="252" type="default_016" depart="57899.307159352466" from="25145012#7" to="201956820" /><trip id="253" type="default_017" depart="57900.49488617529" from="25145012#7" to="201956811#0" /><trip id="254" type="default_017" depart="57901.68261299812" from="653473569#5" to="201956811#0" /><trip id="255" type="default_017" depart="57902.87033982095" from="10425609#0" to="-653473569#5" /><trip id="256" type="default_017" depart="57904.058066643775" from="27920078#0" to="201956820" /><trip id="257" type="default_016" depart="57905.2457934666" from="27920078#0" to="-83304175#2" /><trip id="258" type="default_016" depart="57906.43352028943" from="27920078#0" to="-266565295#5" /><trip id="259" type="default_017" depart="57907.621247112256" from="-32978638#0" to="-315358253#1" /><trip id="260" type="default_016" depart="57908.80897393508" from="124812856#0" to="202070434#2" /><trip id="261" type="default_017" depart="57909.99670075791" from="-32978638#0" to="202070434#2" /><trip id="262" type="default_017" depart="57911.18442758074" from="266565295#5" to="202070434#2" /><trip id="263" type="default_017" depart="57912.372154403565" from="124812856#0" to="202070434#2" /><trip id="264" type="default_016" depart="57913.55988122639" from="315358253#1" to="-266565295#5" /><trip id="265" type="default_016" depart="57914.74760804922" from="266565295#5" to="-315358253#1" /><trip id="266" type="default_017" depart="57915.93533487205" from="124812856#0" to="202070434#2" /><trip id="267" type="default_017" depart="57917.123061694874" from="124812856#0" to="201956810" /><trip id="268" type="default_017" depart="57918.3107885177" from="315358253#1" to="32978638#0" /><trip id="269" type="default_016" depart="57919.49851534053" from="-32978638#0" to="-315358253#1" /><trip id="270" type="default_017" depart="57920.686242163356" from="266565295#5" to="-315358253#1" /><trip id="271" type="default_017" depart="57921.87396898618" from="27920078#0" to="22716549#0" /><trip id="272" type="default_017" depart="57923.06169580901" from="653473569#5" to="201956811#0" /><trip id="273" type="default_016" depart="57924.24942263184" from="-173169611#0" to="-83304175#2" /><trip id="274" type="default_017" depart="57925.437149454665" from="315358253#1" to="32978638#0" /><trip id="275" type="default_017" depart="57926.62487627749" from="653473569#5" to="201956820" /><trip id="276" type="default_017" depart="57927.81260310032" from="653473569#5" to="201956820"