<routes xmlns:xsi="http://www.w3.org/2001/XMLSchema-instance" xsi:noNamespaceSchemaLocation="http://sumo.dlr.de/xsd/routes_file.xsd">
<vehicle id="0" depart="0"><route edges="right1D1 D1C1 C1B1 B1A1 A1left1" /></vehicle><vehicle id="1" depart="1.2"><route edges="left3A3 A3A2 A2B2 B2C2 C2D2 D2right2" /></vehicle><vehicle id="2" depart="2.4"><route edges="top0A3 A3A2 A2left2" /></vehicle><vehicle id="3" depart="3.5999999999999996"><route edges="top2C3 C3C2 C2B2 B2A2 A2left2" /></vehicle><vehicle id="4" depart="4.8"><route edges="left3A3 A3B3 B3C3 C3top2" /></vehicle><vehicle id="5" depart="6.0"><route edges="left2A2 A2B2 B2C2 C2D2 D2D3 D3top3" /></vehicle><vehicle id="6" depart="7.2"><route edges="top1B3 B3A3 A3A2 A2A1 A1A0 A0bottom0" /></vehicle><vehicle id="7" depart="8.4"><route edges="left2A2 A2B2 B2C2 C2D2 D2D1 D1D0 D0bottom3" /></vehicle><vehicle id="8" depart="9.6"><route edges="bottom2C0 C0C1 C1D1 D1right1" /></vehicle><vehicle id="9" depart="10.799999999999999"><route edges="bottom3D0 D0D1 D1D2 D2right2" /></vehicle><vehicle id="10" depart="11.999999999999998"><route edges="left3A3 A3A2 A2B2 B2C2 C2D2 D2right2" /></vehicle><vehicle id="11" depart="13.199999999999998"><route edges="left2A2 A2B2 B2B3 B3top1" /></vehicle><vehicle id="12" depart="14.399999999999997"><route edges="top1B3 B3A3 A3top0" /></vehicle><vehicle id="13" depart="15.599999999999996"><route edges="right1D1 D1C1 C1B1 B1A1 A1left1" /></vehicle><vehicle id="14" depart="16.799999999999997"><route edges="bottom3D0 D0D1 D1D2 D2D3 D3top3" /></vehicle><vehicle id="15" depart="17.999999999999996"><route edges="right0D0 D0C0 C0bottom2" /></vehicle><vehicle id="16" depart="19.199999999999996"><route edges="left1A1 A1A0 A0left0" /></vehicle><vehicle id="17" depart="20.399999999999995"><route edges="bottom3D0 D0D1 D1D2 D2D3 D3right3" /></vehicle><vehicle id="18" depart="21.599999999999994"><route edges="bottom0A0 A0A1 A1A2 A2left2" /></vehicle><vehicle id="19" depart="22.799999999999994"><route edges="left2A2 A2A1 A1left1" /></vehicle><vehicle id="20" depart="23.999999999999993"><route edges="bottom2C0 C0C1 C1C2 C2B2 B2A2 A2left2" /></vehicle><vehicle id="21" depart="25.199999999999992"><route edges="bottom3D0 D0D1 D1D2 D2C2 C2B2 B2A2 A2left2" /></vehicle><vehicle id="22" depart="26.39999999999999"><route edges="right1D1 D1D0 D0bottom3" /></vehicle><vehicle id="23" depart="27.59999999999999"><route edges="right1D1 D1C1 C1B1 B1A1 A1left1" /></vehicle><vehicle id="24" depart="28.79999999999999"><route edges="bottom1B0 B0B1 B1A1 A1left1" /></vehicle><vehicle id="25" depart="29.99999999999999"><route edges="top0A3 A3A2 A2left2" /></vehicle><vehicle id="26" depart="31.19999999999999"><route edges="bottom3D0 D0C0 C0bottom2" /></vehicle><vehicle id="27" depart="32.39999999999999"><route edges="bottom1B0 B0B1 B1B2 B2B3 B3A3 A3left3" /></vehicle><vehicle id="28" depart="33.599999999999994"><route edges="bottom2C0 C0C1 C1B1 B1B2 B2B3 B3top1" /></vehicle><vehicle id="29" depart="34.8"><route edges="bottom3D0 D0D1 D1D2 D2D3 D3right3" /></vehicle><vehicle id="30" depart="36.0"><route edges="left0A0 A0B0 B0C0 C0C1 C1C2 C2C3 C3top2" /></vehicle><vehicle id="31" depart="37.2"><route edges="bottom0A0 A0A1 A1left1" /></vehicle><vehicle id="32" depart="38.400000000000006"><route edges="left1A1 A1B1 B1B0 B0bottom1" /></vehicle><vehicle id="33" depart="39.60000000000001"><route edges="top0A3 A3A2 A2B2 B2C2 C2D2 D2D1 D1D0 D0bottom3" /></vehicle><vehicle id="34" depart="40.80000000000001"><route edges="right2D2 D2C2 C2B2 B2A2 A2A3 A3top0" /></vehicle><vehicle id="35" depart="42.000000000000014"><route edges="right2D2 D2C2 C2C3 C3D3 D3D2 D2right2" /></vehicle><vehicle id="36" depart="43.20000000000002"><route edges="bottom2C0 C0D0 D0bottom3" /></vehicle><vehicle id="37" depart="44.40000000000002"><route edges="bottom2C0 C0C1 C1C2 C2D2 D2right2" /></vehicle><vehicle id="38" depart="45.60000000000002"><route edges="left0A0 A0B0 B0B1 B1B2 B2B3 B3C3 C3D3 D3right3" /></vehicle><vehicle id="39" depart="46.800000000000026"><route edges="right0D0 D0D1 D1D2 D2D3 D3right3" /></vehicle><vehicle id="40" depart="48.00000000000003"><route edges="bottom0A0 A0A1 A1A2 A2A3 A3top0" /></vehicle><vehicle id="41" depart="49.20000000000003"><route edges="bottom3D0 D0D1 D1C1 C1B1 B1B2 B2B3 B3top1" /></vehicle><vehicle id="42" depart="50.400000000000034"><route edges="bottom1B0 B0C0 C0D0 D0right0" /></vehicle><vehicle id="43" depart="51.60000000000004"><route edges="right1D1 D1C1 C1C2 C2C3 C3top2" /></vehicle><vehicle id="44" depart="52.80000000000004"><route edges="left3A3 A3B3 B3C3 C3D3 D3D2 D2D1 D1D0 D0right0" /></vehicle><vehicle id="45" depart="54.00000000000004"><route edges="bottom1B0 B0B1 B1A1 A1left1" /></vehicle><vehicle id="46" depart="55.200000000000045"><route edges="left3A3 A3B3 B3C3 C3D3 D3D2 D2D1 D1right1" /></vehicle><vehicle id="47" depart="56.40000000000005"><route edges="top0A3 A3B3 B3C3 C3D3 D3right3" /></vehicle><vehicle id="48" depart="57.60000000000005"><route edges="top0A3 A3A2 A2B2 B2C2 C2D2 D2right2" /></vehicle><vehicle id="49" depart="58.800000000000054"><route edges="bottom2C0 C0C1 C1C2 C2C3 C3D3 D3right3" /></vehicle><vehicle id="50" depart="60.00000000000006"><route edges="top0A3 A3A2 A2left2" /></vehicle><vehicle id="51" depart="61.20000000000006"><route edges="top1B3 B3B2 B2C2 C2D2 D2right2" /></vehicle><vehicle id="52" depart="62.40000000000006"><route edges="top2C3 C3C2 C2B2 B2B3 B3C3 C3top2" /></vehicle><vehicle id="53" depart="63.600000000000065"><route edges="top3D3 D3D2 D2D1 D1C1 C1B1 B1A1 A1left1" /></vehicle><vehicle id="54" depart="64.80000000000007"><route edges="right0D0 D0C0 C0C1 C1C2 C2C3 C3top2" /></vehicle><vehicle id="55" depart="66.00000000000007"><route edges="left2A2 A2B2 B2B1 B1A1 A1A2 A2left2" /></vehicle><vehicle id="56" depart="67.20000000000007"><route edges="bottom3D0 D0D1 D1D2 D2C2 C2B2 B2A2 A2left2" /></vehicle><vehicle id="57" depart="68.40000000000008"><route edges="right0D0 D0D1 D1right1" /></vehicle><vehicle id="58" depart="69.60000000000008"><route edges="bottom2C0 C0C1 C1C2 C2B2 B2A2 A2left2" /></vehicle><vehicle id="59" depart="70.80000000000008"><route edges="top2C3 C3C2 C2D2 D2D1 D1D0 D0bottom3" /></vehicle><vehicle id="60" depart="72.00000000000009"><route edges="right3D3 D3C3 C3B3 B3top1" /></vehicle><vehicle id="61" depart="73.20000000000009"><route edges="left1A1 A1B1 B1C1 C1C2 C2C3 C3top2" /></vehicle><vehicle id="62" depart="74.40000000000009"><route edges="right1D1 D1D2 D2D3 D3top3" /></vehicle><vehicle id="63" depart="75.6000000000001"><route edges="left1A1 A1A0 A0B0 B0C0 C0D0 D0right0" /></vehicle><vehicle id="64" depart="76.8000000000001"><route edges="bottom3D0 D0C0 C0B0 B0bottom1" /></vehicle><vehicle id="65" depart="78.0000000000001"><route edges="right1D1 D1C1 C1B1 B1A1 A1A2 A2A3 A3left3" /></vehicle><vehicle id="66" depart="79.2000000000001"><route edges="right1D1 D1C1 C1B1 B1A1 A1A2 A2A3 A3top0" /></vehicle><vehicle id="67" depart="80.4000000000001"><route edges="right3D3 D3C3 C3B3 B3B2 B2B1 B1B0 B0bottom1" /></vehicle><vehicle id="68" depart="81.60000000000011"><route edges="right3D3 D3D2 D2right2" /></vehicle><vehicle id="69" depart="82.80000000000011"><route edges="top3D3 D3D2 D2D1 D1D0 D0C0 C0B0 B0bottom1" /></vehicle><vehicle id="70" depart="84.00000000000011"><route edges="top0A3 A3A2 A2B2 B2C2 C2D2 D2D1 D1D0 D0bottom3" /></vehicle><vehicle id="71" depart="85.20000000000012"><route edges="left1A1 A1B1 B1B2 B2B3 B3top1" /></vehicle><vehicle id="72" depart="86.40000000000012"><route edges="left1A1 A1A0 A0bottom0" /></vehicle><vehicle id="73" depart="87.60000000000012"><route edges="left1A1 A1A2 A2A3 A3left3" /></vehicle><vehicle id="74" depart="88.80000000000013"><route edges="bottom3D0 D0D1 D1D2 D2D3 D3right3" /></vehicle><vehicle id="75" depart="90.00000000000013"><route edges="left1A1 A1B1 B1C1 C1C2 C2C3 C3top2" /></vehicle><vehicle id="76" depart="91.20000000000013"><route edges="left0A0 A0B0 B0C0 C0D0 D0D1 D1D2 D2D3 D3top3" /></vehicle><vehicle id="77" depart="92.40000000000013"><route edges="right0D0 D0C0 C0C1 C1D1 D1D0 D0right0" /></vehicle><vehicle id="78" depart="93.60000000000014"><route edges="left3A3 A3A2 A2left2" /></vehicle><vehicle id="79" depart="94.80000000000014"><route edges="right1D1 D1C1 C1C0 C0bottom2" /></vehicle><vehicle id="80" depart="96.00000000000014"><route edges="right3D3 D3C3 C3B3 B3B2 B2B1 B1B0 B0bottom1" /></vehicle><vehicle id="81" depart="97.20000000000014"><route edges="left2A2 A2A1 A1A0 A0bottom0" /></vehicle><vehicle id="82" depart="98.40000000000015"><route edges="right2D2 D2D1 D1right1" /></vehicle><vehicle id="83" depart="99.60000000000015"><route edges="top2C3 C3C2 C2D2 D2D1 D1D0 D0bottom3" /></vehicle><vehicle id="84" depart="100.80000000000015"><route edges="right2D2 D2C2 C2C1 C1C0 C0B0 B0A0 A0left0" /></vehicle><vehicle id="85" depart="102.00000000000016"><route edges="left3A3 A3B3 B3C3 C3D3 D3D2 D2D1 D1D0 D0right0" /></vehicle><vehicle id="86" depart="103.20000000000016"><route edges="right0D0 D0C0 C0C1 C1C2 C2C3 C3top2" /></vehicle><vehicle id="87" depart="104.40000000000016"><route edges="left0A0 A0A1 A1left1" /></vehicle><vehicle id="88" depart="105.60000000000016"><route edges="left0A0 A0B0 B0B1 B1B2 B2C2 C2D2 D2right2" /></vehicle><vehicle id="89" depart="106.80000000000017"><route edges="bottom1B0 B0C0 C0D0 D0right0" /></vehicle><vehicle id="90" depart="108.00000000000017"><route edges="right2D2 D2C2 C2C3 C3top2" /></vehicle><vehicle id="91" depart="109.20000000000017"><route edges="right1D1 D1D2 D2D3 D3right3" /></vehicle><vehicle id="92" depart="110.40000000000018"><route edges="top2C3 C3C2 C2D2 D2right2" /></vehicle><vehicle id="93" depart="111.60000000000018"><route edges="right0D0 D0C0 C0C1 C1C2 C2C3 C3top2" /></vehicle><vehicle id="94" depart="112.80000000000018"><route edges="left0A0 A0bottom0" /></vehicle><vehicle id="95" depart="114.00000000000018"><route edges="left1A1 A1B1 B1C1 C1D1 D1D0 D0bottom3" /></vehicle><vehicle id="96" depart="115.20000000000019"><route edges="right3D3 D3D2 D2D1 D1right1" /></vehicle><vehicle id="97" depart="116.40000000000019"><route edges="bottom0A0 A0A1 A1B1 B1C1 C1D1 D1right1" /></vehicle><vehicle id="98" depart="117.6000000000002"><route edges="bottom0A0 A0A1 A1A2 A2A3 A3B3 B3C3 C3D3 D3top3" /></vehicle><vehicle id="99" depart="118.8000000000002"><route edges="left0A0 A0A1 A1A2 A2A3 A3top0" /></vehicle><vehicle id="100" depart="120.0000000000002"><route edges="left3A3 A3B3 B3C3 C3D3 D3right3" /></vehicle><vehicle id="101" depart="121.2000000000002"><route edges="right0D0 D0C0 C0B0 B0A0 A0A1 A1A2 A2left2" /></vehicle><vehicle id="102" depart="122.4000000000002"><route edges="left2A2 A2B2 B2C2 C2C1 C1C0 C0bottom2" /></vehicle><vehicle id="103" depart="123.60000000000021"><route edges="left1A1 A1A2 A2left2" /></vehicle><vehicle id="104" depart="124.80000000000021"><route edges="bottom3D0 D0D1 D1C1 C1B1 B1A1 A1A2 A2A3 A3top0" /></vehicle><vehicle id="105" depart="126.00000000000021"><route edges="bottom2C0 C0C1 C1C2 C2B2 B2A2 A2left2" /></vehicle><vehicle id="106" depart="127.20000000000022"><route edges="top0A3 A3left3" /></vehicle><vehicle id="107" depart="128.4000000000002"><route edges="top3D3 D3D2 D2D1 D1C1 C1B1 B1A1 A1left1" /></vehicle><vehicle id="108" depart="129.6000000000002"><route edges="top3D3 D3C3 C3C2 C2C1 C1C0 C0bottom2" /></vehicle><vehicle id="109" depart="130.80000000000018"><route edges="right1D1 D1C1 C1B1 B1A1 A1A2 A2A3 A3left3" /></vehicle><vehicle id="110" depart="132.00000000000017"><route edges="bottom3D0 D0D1 D1D2 D2D3 D3right3" /></vehicle><vehicle id="111" depart="133.20000000000016"><route edges="top1B3 B3B2 B2C2 C2C1 C1C0 C0bottom2" /></vehicle><vehicle id="112" depart="134.40000000000015"><route edges="right0D0 D0C0 C0B0 B0A0 A0A1 A1A2 A2A3 A3left3" /></vehicle><vehicle id="113" depart="135.60000000000014"><route edges="right1D1 D1C1 C1C0 C0bottom2" /></vehicle><vehicle id="114" depart="136.80000000000013"><route edges="right2D2 D2D1 D1D0 D0bottom3" /></vehicle><vehicle id="115" depart="138.0000000000001"><route edges="bottom3D0 D0D1 D1D2 D2D3 D3right3" /></vehicle><vehicle id="116" depart="139.2000000000001"><route edges="right2D2 D2C2 C2C1 C1C0 C0B0 B0A0 A0left0" /></vehicle><vehicle id="117" depart="140.4000000000001"><route edges="left0A0 A0bottom0" /></vehicle><vehicle id="118" depart="141.60000000000008"><route edges="right1D1 D1C1 C1B1 B1A1 A1A2 A2A3 A3top0" /></vehicle><vehicle id="119" depart="142.80000000000007"><route edges="top3D3 D3D2 D2D1 D1D0 D0C0 C0B0 B0A0 A0left0" /></vehicle><vehicle id="120" depart="144.00000000000006"><route edges="right3D3 D3C3 C3B3 B3top1" /></vehicle><vehicle id="121" depart="145.20000000000005"><route edges="right2D2 D2D1 D1D0 D0bottom3" /></vehicle><vehicle id="122" depart="146.40000000000003"><route edges="top1B3 B3B2 B2B1 B1C1 C1D1 D1right1" /></vehicle><vehicle id="123" depart="147.60000000000002"><route edges="top2C3 C3C2 C2C1 C1C0 C0bottom2" /></vehicle><vehicle id="124" depart="148.8"><route edges="right2D2 D2C2 C2B2 B2A2 A2A1 A1A0 A0bottom0" /></vehicle><vehicle id="125" depart="150.0"><route edges="bottom2C0 C0C1 C1B1 B1B2 B2B3 B3top1" /></vehicle><vehicle id="126" depart="151.2"><route edges="right2D2 D2C2 C2C3 C3top2" /></vehicle><vehicle id="127" depart="152.39999999999998"><route edges="left2A2 A2A3 A3left3" /></vehicle><vehicle id="128" depart="153.59999999999997"><route edges="left2A2 A2A1 A1A0 A0bottom0" /></vehicle><vehicle id="129" depart="154.79999999999995"><route edges="left3A3 A3B3 B3C3 C3D3 D3D2 D2D1 D1right1" /></vehicle><vehicle id="130" depart="155.99999999999994"><route edges="right0D0 D0C0 C0B0 B0A0 A0A1 A1A2 A2A3 A3left3" /></vehicle><vehicle id="131" depart="157.19999999999993"><route edges="bottom1B0 B0B1 B1B2 B2C2 C2D2 D2right2" /></vehicle><vehicle id="132" depart="158.39999999999992"><route edges="bottom2C0 C0C1 C1D1 D1right1" /></vehicle><vehicle id="133" depart="159.5999999999999"><route edges="right0D0 D0D1 D1D2 D2right2" /></vehicle><vehicle id="134" depart="160.7999999999999"><route edges="bottom2C0 C0D0 D0bottom3" /></vehicle><vehicle id="135" depart="161.9999999999999"><route edges="top0A3 A3A2 A2A1 A1A0 A0B0 B0C0 C0D0 D0right0" /></vehicle><vehicle id="136" depart="163.19999999999987"><route edges="bottom3D0 D0C0 C0B0 B0A0 A0left0" /></vehicle><vehicle id="137" depart="164.39999999999986"><route edges="right3D3 D3C3 C3B3 B3A3 A3left3" /></vehicle><vehicle id="138" depart="165.59999999999985"><route edges="top0A3 A3A2 A2B2 B2C2 C2D2 D2right2" /></vehicle><vehicle id="139" depart="166.79999999999984"><route edges="right3D3 D3C3 C3B3 B3A3 A3left3" /></vehicle><vehicle id="140" depart="167.99999999999983"><route edges="right0D0 D0C0 C0B0 B0A0 A0A1 A1A2 A2A3 A3left3" /></vehicle><vehicle id="141" depart="169.19999999999982"><route edges="bottom2C0 C0B0 B0A0 A0bottom0" /></vehicle><vehicle id="142" depart="170.3999999999998"><route edges="bottom0A0 A0left0" /></vehicle><vehicle id="143" depart="171.5999999999998"><route edges="top3D3 D3D2 D2D1 D1D0 D0bottom3" /></vehicle><vehicle id="144" depart="172.79999999999978"><route edges="right1D1 D1C1 C1C2 C2C3 C3top2" /></vehicle><vehicle id="145" depart="173.99999999999977"><route edges="top1B3 B3B2 B2C2 C2C1 C1C0 C0bottom2" /></vehicle><vehicle id="146" depart="175.19999999999976"><route edges="bottom0A0 A0B0 B0C0 C0D0 D0right0" /></vehicle><vehicle id="147" depart="176.39999999999975"><route edges="right0D0 D0C0 C0B0 B0A0 A0bottom0" /></vehicle><vehicle id="148" depart="177.59999999999974"><route edges="left3A3 A3B3 B3B2 B2A2 A2A3 A3left3" /></vehicle><vehicle id="149" depart="178.79999999999973"><route edges="top2C3 C3C2 C2D2 D2right2" /></vehicle><vehicle id="150" depart="179.99999999999972"><route edges="top2C3 C3B3 B3top1" /></vehicle><vehicle id="151" depart="181.1999999999997"><route edges="bottom0A0 A0A1 A1B1 B1C1 C1D1 D1right1" /></vehicle><vehicle id="152" depart="182.3999999999997"><route edges="left0A0 A0B0 B0C0 C0D0 D0D1 D1D2 D2D3 D3top3" /></vehicle><vehicle id="153" depart="183.59999999999968"><route edges="bottom2C0 C0C1 C1C2 C2C3 C3D3 D3right3" /></vehicle><vehicle id="154" depart="184.79999999999967"><route edges="bottom3D0 D0D1 D1D2 D2D3 D3right3" /></vehicle><vehicle id="155" depart="185.99999999999966"><route edges="top2C3 C3B3 B3A3 A3top0" /></vehicle><vehicle id="156" depart="187.19999999999965"><route edges="bottom1B0 B0C0 C0D0 D0right0" /></vehicle><vehicle id="157" depart="188.39999999999964"><route edges="right2D2 D2C2 C2B2 B2B3 B3top1" /></vehicle><vehicle id="158" depart="189.59999999999962"><route edges="bottom0A0 A0B0 B0C0 C0D0 D0bottom3" /></vehicle><vehicle id="159" depart="190.7999999999996"><route edges="top3D3 D3right3" /></vehicle><vehicle id="160" depart="191.9999999999996"><route edges="left2A2 A2B2 B2B3 B3top1" /></vehicle><vehicle id="161" depart="193.1999999999996"><route edges="top1B3 B3A3 A3left3" /></vehicle><vehicle id="162" depart="194.39999999999958"><route edges="right0D0 D0C0 C0B0 B0A0 A0bottom0" /></vehicle><vehicle id="163" depart="195.59999999999957"><route edges="top2C3 C3C2 C2C1 C1C0 C0B0 B0A0 A0left0" /></vehicle><vehicle id="164" depart="196.79999999999956"><route edges="top2C3 C3B3 B3top1" /></vehicle><vehicle id="165" depart="197.99999999999955"><route edges="right2D2 D2C2 C2B2 B2A2 A2left2" /></vehicle><vehicle id="166" depart="199.19999999999953"><route edges="right1D1 D1C1 C1B1 B1A1 A1A2 A2A3 A3top0" /></vehicle><vehicle id="167" depart="200.39999999999952"><route edges="left3A3 A3B3 B3C3 C3D3 D3D2 D2D1 D1D0 D0right0" /></vehicle><vehicle id="168" depart="201.5999999999995"><route edges="right2D2 D2C2 C2C3 C3D3 D3D2 D2right2" /></vehicle><vehicle id="169" depart="202.7999999999995"><route edges="left1A1 A1B1 B1B2 B2B3 B3top1" /></vehicle><vehicle id="170" depart="203.9999999999995"><route edges="right0D0 D0D1 D1right1" /></vehicle><vehicle id="171" depart="205.19999999999948"><route edges="right1D1 D1D2 D2D3 D3right3" /></vehicle><vehicle id="172" depart="206.39999999999947"><route edges="bottom3D0 D0D1 D1C1 C1B1 B1A1 A1left1" /></vehicle><vehicle id="173" depart="207.59999999999945"><route edges="left3A3 A3A2 A2A1 A1A0 A0bottom0" /></vehicle><vehicle id="174" depart="208.79999999999944"><route edges="bottom2C0 C0D0 D0bottom3" /></vehicle><vehicle id="175" depart="209.99999999999943"><route edges="left2A2 A2A1 A1B1 B1C1 C1D1 D1right1" /></vehicle><vehicle id="176" depart="211.19999999999942"><route edges="top1B3 B3B2 B2B1 B1B0 B0C0 C0D0 D0right0" /></vehicle><vehicle id="177" depart="212.3999999999994"><route edges="left1A1 A1B1 B1B2 B2B3 B3C3 C3D3 D3right3" /></vehicle><vehicle id="178" depart="213.5999999999994"><route edges="left3A3 A3A2 A2A1 A1A0 A0bottom0" /></vehicle><vehicle id="179" depart="214.7999999999994"><route edges="left1A1 A1A0 A0left0" /></vehicle><vehicle id="180" depart="215.99999999999937"><route edges="left3A3 A3B3 B3C3 C3top2" /></vehicle><vehicle id="181" depart="217.19999999999936"><route edges="right1D1 D1C1 C1C2 C2D2 D2D1 D1right1" /></vehicle><vehicle id="182" depart="218.39999999999935"><route edges="right3D3 D3D2 D2D1 D1right1" /></vehicle><vehicle id="183" depart="219.59999999999934"><route edges="right2D2 D2C2 C2C3 C3top2" /></vehicle><vehicle id="184" depart="220.79999999999933"><route edges="left0A0 A0A1 A1A2 A2left2" /></vehicle><vehicle id="185" depart="221.99999999999932"><route edges="top3D3 D3D2 D2D1 D1D0 D0right0" /></vehicle><vehicle id="186" depart="223.1999999999993"><route edges="left2A2 A2B2 B2B1 B1A1 A1A2 A2left2" /></vehicle><vehicle id="187" depart="224.3999999999993"><route edges="bottom3D0 D0C0 C0B0 B0A0 A0left0" /></vehicle><vehicle id="188" depart="225.59999999999928"><route edges="right3D3 D3C3 C3C2 C2C1 C1C0 C0B0 B0A0 A0left0" /></vehicle><vehicle id="189" depart="226.79999999999927"><route edges="left1A1 A1A2 A2left2" /></vehicle><vehicle id="190" depart="227.99999999999926"><route edges="top3D3 D3D2 D2D1 D1D0 D0bottom3" /></vehicle><vehicle id="191" depart="229.19999999999925"><route edges="bottom3D0 D0D1 D1D2 D2D3 D3top3" /></vehicle><vehicle id="192" depart="230.39999999999924"><route edges="bottom0A0 A0A1 A1left1" /></vehicle><vehicle id="193" depart="231.59999999999923"><route edges="bottom0A0 A0B0 B0bottom1" /></vehicle><vehicle id="194" depart="232.79999999999922"><route edges="top1B3 B3B2 B2B1 B1A1 A1left1" /></vehicle><vehicle id="195" depart="233.9999999999992"><route edges="left0A0 A0B0 B0C0 C0D0 D0right0" /></vehicle><vehicle id="196" depart="235.1999999999992"><route edges="bottom1B0 B0B1 B1B2 B2A2 A2left2" /></vehicle><vehicle id="197" depart="236.39999999999918"><route edges="left0A0 A0A1 A1A2 A2A3 A3left3" /></vehicle><vehicle id="198" depart="237.59999999999917"><route edges="bottom0A0 A0B0 B0bottom1" /></vehicle><vehicle id="199" depart="238.79999999999916"><route edges="right3D3 D3D2 D2D1 D1D0 D0bottom3" /></vehicle><vehicle id="200" depart="239.99999999999915"><route edges="top2C3 C3C2 C2D2 D2D1 D1D0 D0bottom3" /></vehicle><vehicle id="201" depart="241.19999999999914"><route edges="top3D3 D3D2 D2D1 D1right1" /></vehicle><vehicle id="202" depart="242.39999999999912"><route edges="top1B3 B3A3 A3left3" /></vehicle><vehicle id="203" depart="243.5999999999991"><route edges="top0A3 A3B3 B3C3 C3top2" /></vehicle><vehicle id="204" depart="244.7999999999991"><route edges="top3D3 D3C3 C3B3 B3top1" /></vehicle><vehicle id="205" depart="245.9999999999991"><route edges="left2A2 A2A1 A1left1" /></vehicle><vehicle id="206" depart="247.19999999999908"><route edges="right3D3 D3C3 C3B3 B3top1" /></vehicle><vehicle id="207" depart="248.39999999999907"><route edges="top3D3 D3C3 C3C2 C2C1 C1C0 C0bottom2" /></vehicle><vehicle id="208" depart="249.59999999999906"><route edges="top0A3 A3A2 A2B2 B2C2 C2C1 C1C0 C0bottom2" /></vehicle><vehicle id="209" depart="250.79999999999905"><route edges="bottom2C0 C0C1 C1D1 D1right1" /></vehicle><vehicle id="210" depart="251.99999999999903"><route edges="top0A3 A3A2 A2B2 B2C2 C2D2 D2D1 D1D0 D0bottom3" /></vehicle><vehicle id="211" depart="253.19999999999902"><route edges="top0A3 A3A2 A2A1 A1A0 A0B0 B0C0 C0D0 D0right0" /></vehicle><vehicle id="212" depart="254.399999999999"><route edges="bottom2C0 C0C1 C1C2 C2D2 D2right2" /></vehicle><vehicle id="213" depart="255.599999999999"><route edges="right1D1 D1C1 C1C0 C0bottom2" /></vehicle><vehicle id="214" depart="256.799999999999"><route edges="left3A3 A3B3 B3C3 C3D3 D3right3" /></vehicle><vehicle id="215" depart="257.999999999999"><route edges="top1B3 B3B2 B2B1 B1B0 B0C0 C0D0 D0right0" /></vehicle><vehicle id="216" depart="259.19999999999897"><route edges="left0A0 A0B0 B0C0 C0D0 D0right0" /></vehicle><vehicle id="217" depart="260.39999999999895"><route edges="bottom2C0 C0C1 C1B1 B1A1 A1A2 A2A3 A3top0" /></vehicle><vehicle id="218" depart="261.59999999999894"><route edges="bottom3D0 D0D1 D1right1" /></vehicle><vehicle id="219" depart="262.79999999999893"><route edges="right2D2 D2C2 C2C1 C1C0 C0bottom2" /></vehicle><vehicle id="220" depart="263.9999999999989"><route edges="bottom2C0 C0D0 D0D1 D1D2 D2D3 D3top3" /></vehicle><vehicle id="221" depart="265.1999999999989"><route edges="right0D0 D0D1 D1right1" /></vehicle><vehicle id="222" depart="266.3999999999989"><route edges="left2A2 A2A1 A1A0 A0bottom0" /></vehicle><vehicle id="223" depart="267.5999999999989"><route edges="top2C3 C3D3 D3top3" /></vehicle><vehicle id="224" depart="268.7999999999989"><route edges="bottom1B0 B0B1 B1C1 C1C0 C0B0 B0bottom1" /></vehicle><vehicle id="225" depart="269.99999999999886"><route edges="right1D1 D1D0 D0right0" /></vehicle><vehicle id="226" depart="271.19999999999885"><route edges="right2D2 D2D1 D1right1" /></vehicle><vehicle id="227" depart="272.39999999999884"><route edges="right0D0 D0C0 C0B0 B0B1 B1B2 B2B3 B3top1" /></vehicle><vehicle id="228" depart="273.59999999999883"><route edges="left3A3 A3B3 B3C3 C3D3 D3D2 D2D1 D1right1" /></vehicle><vehicle id="229" depart="274.7999999999988"><route edges="left0A0 A0A1 A1A2 A2A3 A3left3" /></vehicle><vehicle id="230" depart="275.9999999999988"><route edges="left0A0 A0A1 A1A2 A2left2" /></vehicle><vehicle id="231" depart="277.1999999999988"><route edges="right2D2 D2D3 D3right3" /></vehicle><vehicle id="232" depart="278.3999999999988"><route edges="right1D1 D1C1 C1C2 C2C3 C3top2" /></vehicle><vehicle id="233" depart="279.5999999999988"><route edges="left3A3 A3B3 B3C3 C3D3 D3top3" /></vehicle><vehicle id="234" depart="280.79999999999876"><route edges="right1D1 D1D0 D0bottom3" /></vehicle><vehicle id="235" depart="281.99999999999875"><route edges="bottom2C0 C0D0 D0D1 D1D2 D2D3 D3top3" /></vehicle><vehicle id="236" depart="283.19999999999874"><route edges="bottom3D0 D0C0 C0C1 C1D1 D1D0 D0bottom3" /></vehicle><vehicle id="237" depart="284.3999999999987"><route edges="top0A3 A3left3" /></vehicle><vehicle id="238" depart="285.5999999999987"><route edges="right2D2 D2C2 C2B2 B2A2 A2A3 A3top0" /></vehicle><vehicle id="239" depart="286.7999999999987"><route edges="left2A2 A2A1 A1B1 B1C1 C1D1 D1right1" /></vehicle><vehicle id="240" depart="287.9999999999987"><route edges="left1A1 A1B1 B1B2 B2B3 B3C3 C3D3 D3right3" /></vehicle><vehicle id="241" depart="289.1999999999987"><route edges="left0A0 A0B0 B0C0 C0D0 D0bottom3" /></vehicle><vehicle id="242" depart="290.39999999999867"><route edges="right0D0 D0C0 C0C1 C1C2 C2C3 C3top2" /></vehicle><vehicle id="243" depart="291.59999999999866"><route edges="top3D3 D3C3 C3C2 C2C1 C1C0 C0bottom2" /></vehicle><vehicle id="244" depart="292.79999999999865"><route edges="left1A1 A1A2 A2A3 A3left3" /></vehicle><vehicle id="245" depart="293.99999999999864"><route edges="left1A1 A1B1 B1B0 B0bottom1" /></vehicle><vehicle id="246" depart="295.1999999999986"><route edges="bottom3D0 D0C0 C0B0 B0bottom1" /></vehicle><vehicle id="247" depart="296.3999999999986"><route edges="right0D0 D0C0 C0B0 B0B1 B1B2 B2B3 B3top1" /></vehicle><vehicle id="248" depart="297.5999999999986"><route edges="right2D2 D2D3 D3top3" /></vehicle><vehicle id="249" depart="298.7999999999986"><route edges="bottom1B0 B0B1 B1B2 B2B3 B3top1" /></vehicle><vehicle id="250" depart="299.9999999999986"><route edges="left1A1 A1B1 B1B0 B0A0 A0A1 A1left1" /></vehicle><vehicle id="251" depart="301.19999999999857"><route edges="top3D3 D3C3 C3B3 B3A3 A3left3" /></vehicle><vehicle id="252" depart="302.39999999999856"><route edges="left1A1 A1A0 A0bottom0" /></vehicle><vehicle id="253" depart="303.59999999999854"><route edges="right3D3 D3C3 C3B3 B3top1" /></vehicle><vehicle id="254" depart="304.79999999999853"><route edges="left3A3 A3A2 A2A1 A1left1" /></vehicle><vehicle id="255" depart="305.9999999999985"><route edges="left1A1 A1B1 B1C1 C1D1 D1D2 D2D3 D3top3" /></vehicle><vehicle id="256" depart="307.1999999999985"><route edges="left1A1 A1B1 B1C1 C1D1 D1D2 D2D3 D3top3" /></vehicle><vehicle id="257" depart="308.3999999999985"><route edges="bottom1B0 B0A0 A0bottom0" /></vehicle><vehicle id="258" depart="309.5999999999985"><route edges="bottom2C0 C0C1 C1C2 C2C3 C3B3 B3A3 A3left3" /></vehicle><vehicle id="259" depart="310.7999999999985"><route edges="left0A0 A0B0 B0B1 B1C1 C1D1 D1right1" /></vehicle><vehicle id="260" depart="311.99999999999847"><route edges="right2D2 D2C2 C2B2 B2A2 A2A1 A1A0 A0bottom0" /></vehicle><vehicle id="261" depart="313.19999999999845"><route edges="bottom2C0 C0C1 C1C2 C2C3 C3D3 D3right3" /></vehicle><vehicle id="262" depart="314.39999999999844"><route edges="top1B3 B3A3 A3left3" /></vehicle><vehicle id="263" depart="315.59999999999843"><route edges="left2A2 A2B2 B2C2 C2D2 D2D3 D3top3" /></vehicle><vehicle id="264" depart="316.7999999999984"><route edges="bottom3D0 D0C0 C0B0 B0A0 A0left0" /></vehicle><vehicle id="265" depart="317.9999999999984"><route edges="right0D0 D0C0 C0bottom2" /></vehicle><vehicle id="266" depart="319.1999999999984"><route edges="left2A2 A2A3 A3top0" /></vehicle><vehicle id="267" depart="320.3999999999984"><route edges="top1B3 B3B2 B2B1 B1B0 B0A0 A0left0" /></vehicle><vehicle id="268" depart="321.5999999999984"><route edges="bottom0A0 A0B0 B0C0 C0D0 D0bottom3" /></vehicle><vehicle id="269" depart="322.79999999999836"><route edges="bottom2C0 C0C1 C1C2 C2C3 C3D3 D3right3" /></vehicle><vehicle id="270" depart="323.99999999999835"><route edges="left3A3 A3A2 A2A1 A1A0 A0bottom0" /></vehicle><vehicle id="271" depart="325.19999999999834"><route edges="left2A2 A2A1 A1A0 A0left0" /></vehicle><vehicle id="272" depart="326.39999999999833"><route edges="right3D3 D3D2 D2right2" /></vehicle><vehicle id="273" depart="327.5999999999983"><route edges="top2C3 C3B3 B3B2 B2B1 B1B0 B0bottom1" /></vehicle><vehicle id="274" depart="328.7999999999983"><route edges="top3D3 D3C3 C3B3 B3A3 A3left3" /></vehicle><vehicle id="275" depart="329.9999999999983"><route edges="top3D3 D3C3 C3B3 B3A3 A3left3" /></vehicle><vehicle id="276" depart="331.1999999999983"><route edges="left2A2 A2B2 B2B1 B1A1 A1A2 A2left2" /></vehicle><vehicle id="277" depart="332.3999999999983"><route edges="top2C3 C3C2 C2C1 C1C0 C0D0 D0right0" /></vehicle><vehicle id="278" depart="333.59999999999826"><route edges="top1B3 B3A3 A3A2 A2A1 A1A0 A0bottom0" /></vehicle><vehicle id="279" depart="334.79999999999825"><route edges="bottom2C0 C0C1 C1C2 C2B2 B2A2 A2left2" /></vehicle><vehicle id="280" depart="335.99999999999824"><route edges="top2C3 C3C2 C2B2 B2A2 A2left2" /></vehicle><vehicle id="281" depart="337.1999999999982"><route edges="right3D3 D3C3 C3B3 B3top1" /></vehicle><vehicle id="282" depart="338.3999999999982"><route edges="bottom3D0 D0D1 D1C1 C1C2 C2C3 C3top2" /></vehicle><vehicle id="283" depart="339.5999999999982"><route edges="top0A3 A3A2 A2B2 B2C2 C2C1 C1C0 C0bottom2" /></vehicle><vehicle id="284" depart="340.7999999999982"><route edges="bottom0A0 A0B0 B0bottom1" /></vehicle><vehicle id="285" depart="341.9999999999982"><route edges="left3A3 A3A2 A2B2 B2C2 C2D2 D2right2" /></vehicle><vehicle id="286" depart="343.19999999999817"><route edges="right3D3 D3D2 D2D1 D1D0 D0bottom3" /></vehicle><vehicle id="287" 